test/data/matpower/multi_nw/bus_90/pypsa-eur_multinetwork_90/mpc_001_013.m
function mpc = mpc_001_013
%MPC_001_013	Extended MATPOWER case file generated from aggregated PyPSA generator and load data
%	Period: 1 	Weight: 34
%	Time step: 13

%%	MATPOWER Case Format : Version 2
mpc.version = '2';

%% system MVA base
mpc.baseMVA = 100;

%% Weight
mpc.weight = 34;

%% bus data
%	bus_i	type	Pd	Qd	Gs	Bs	area	Vm	Va	baseKV	zone	Vmax	Vmin
mpc.bus = [
	1	2	548.9325757415475	0.0	0.0	0.0	1	1.0	0.0	230.0	1	1.1	0.9;	%AL1 0
	2	2	3508.5630165297816	0.0	0.0	0.0	2	1.0	0.0	230.0	1	1.1	0.9;	%AT1 0
	3	2	1036.848755274144	0.0	0.0	0.0	3	1.0	0.0	230.0	1	1.1	0.9;	%AT1 1
	4	2	1970.120698294222	0.0	0.0	0.0	4	1.0	0.0	230.0	1	1.1	0.9;	%AT1 2
	5	2	2892.526527823776	0.0	0.0	0.0	5	1.0	0.0	230.0	1	1.1	0.9;	%AT1 3
	6	2	1577.820785385339	0.0	0.0	0.0	6	1.0	0.0	230.0	1	1.1	0.9;	%BA1 0
	7	2	7629.008675261081	0.0	0.0	0.0	7	1.0	0.0	230.0	1	1.1	0.9;	%BE1 0
	8	2	3454.1036342036277	0.0	0.0	0.0	8	1.0	0.0	230.0	1	1.1	0.9;	%BE1 1
	9	2	4303.244588578211	0.0	0.0	0.0	9	1.0	0.0	230.0	1	1.1	0.9;	%BG1 0
	10	2	1137.074776777756	0.0	0.0	0.0	10	1.0	0.0	230.0	1	1.1	0.9;	%CH1 0
	11	2	1081.1798940714114	0.0	0.0	0.0	11	1.0	0.0	230.0	1	1.1	0.9;	%CH1 1
	12	2	2025.1319588290353	0.0	0.0	0.0	12	1.0	0.0	230.0	1	1.1	0.9;	%CH1 2
	13	2	2627.395128164774	0.0	0.0	0.0	13	1.0	0.0	230.0	1	1.1	0.9;	%CH1 3
	14	2	1658.6806784523405	0.0	0.0	0.0	14	1.0	0.0	230.0	1	1.1	0.9;	%CZ1 0
	15	2	4305.092429804507	0.0	0.0	0.0	15	1.0	0.0	230.0	1	1.1	0.9;	%CZ1 1
	16	2	2813.0726764505202	0.0	0.0	0.0	16	1.0	0.0	230.0	1	1.1	0.9;	%CZ1 2
	17	2	3326.6125125492817	0.0	0.0	0.0	17	1.0	0.0	230.0	1	1.1	0.9;	%DE1 0
	18	2	2524.8850072444334	0.0	0.0	0.0	18	1.0	0.0	230.0	1	1.1	0.9;	%DE1 1
	19	2	968.4188517659782	0.0	0.0	0.0	19	1.0	0.0	230.0	1	1.1	0.9;	%DE1 10
	20	2	644.3665813775876	0.0	0.0	0.0	20	1.0	0.0	230.0	1	1.1	0.9;	%DE1 11
	21	2	3317.2342842532016	0.0	0.0	0.0	21	1.0	0.0	230.0	1	1.1	0.9;	%DE1 12
	22	2	2594.5931143910366	0.0	0.0	0.0	22	1.0	0.0	230.0	1	1.1	0.9;	%DE1 13
	23	2	496.6186080460718	0.0	0.0	0.0	23	1.0	0.0	230.0	1	1.1	0.9;	%DE1 14
	24	2	2939.054740874486	0.0	0.0	0.0	24	1.0	0.0	230.0	1	1.1	0.9;	%DE1 15
	25	2	1283.752993251085	0.0	0.0	0.0	25	1.0	0.0	230.0	1	1.1	0.9;	%DE1 16
	26	2	1960.180732534052	0.0	0.0	0.0	26	1.0	0.0	230.0	1	1.1	0.9;	%DE1 17
	27	2	1571.1778237683131	0.0	0.0	0.0	27	1.0	0.0	230.0	1	1.1	0.9;	%DE1 18
	28	2	2349.117536369243	0.0	0.0	0.0	28	1.0	0.0	230.0	1	1.1	0.9;	%DE1 19
	29	2	2393.793111307563	0.0	0.0	0.0	29	1.0	0.0	230.0	1	1.1	0.9;	%DE1 2
	30	2	3086.275550410006	0.0	0.0	0.0	30	1.0	0.0	230.0	1	1.1	0.9;	%DE1 20
	31	2	1769.06296227565	0.0	0.0	0.0	31	1.0	0.0	230.0	1	1.1	0.9;	%DE1 21
	32	2	1892.3268061102258	0.0	0.0	0.0	32	1.0	0.0	230.0	1	1.1	0.9;	%DE1 22
	33	2	3011.4499043538576	0.0	0.0	0.0	33	1.0	0.0	230.0	1	1.1	0.9;	%DE1 23
	34	2	467.31647222965563	0.0	0.0	0.0	34	1.0	0.0	230.0	1	1.1	0.9;	%DE1 24
	35	2	1504.256051845561	0.0	0.0	0.0	35	1.0	0.0	230.0	1	1.1	0.9;	%DE1 25
	36	2	1920.7200292936118	0.0	0.0	0.0	36	1.0	0.0	230.0	1	1.1	0.9;	%DE1 26
	37	2	1288.836920400308	0.0	0.0	0.0	37	1.0	0.0	230.0	1	1.1	0.9;	%DE1 27
	38	2	3169.8080820650844	0.0	0.0	0.0	38	1.0	0.0	230.0	1	1.1	0.9;	%DE1 28
	39	2	1968.298107532874	0.0	0.0	0.0	39	1.0	0.0	230.0	1	1.1	0.9;	%DE1 29
	40	2	1853.748107183968	0.0	0.0	0.0	40	1.0	0.0	230.0	1	1.1	0.9;	%DE1 3
	41	2	858.1860293236876	0.0	0.0	0.0	41	1.0	0.0	230.0	1	1.1	0.9;	%DE1 30
	42	2	764.054523391731	0.0	0.0	0.0	42	1.0	0.0	230.0	1	1.1	0.9;	%DE1 31
	43	2	970.3449907310934	0.0	0.0	0.0	43	1.0	0.0	230.0	1	1.1	0.9;	%DE1 32
	44	2	1756.845845432364	0.0	0.0	0.0	44	1.0	0.0	230.0	1	1.1	0.9;	%DE1 33
	45	2	893.4454620663314	0.0	0.0	0.0	45	1.0	0.0	230.0	1	1.1	0.9;	%DE1 34
	46	2	1286.2999913282074	0.0	0.0	0.0	46	1.0	0.0	230.0	1	1.1	0.9;	%DE1 4
	47	2	2312.1941116382905	0.0	0.0	0.0	47	1.0	0.0	230.0	1	1.1	0.9;	%DE1 5
	48	2	2540.3994879078887	0.0	0.0	0.0	48	1.0	0.0	230.0	1	1.1	0.9;	%DE1 6
	49	2	1782.837031682437	0.0	0.0	0.0	49	1.0	0.0	230.0	1	1.1	0.9;	%DE1 7
	50	2	4248.881604758858	0.0	0.0	0.0	50	1.0	0.0	230.0	1	1.1	0.9;	%DE1 8
	51	2	1602.4838069565353	0.0	0.0	0.0	51	1.0	0.0	230.0	1	1.1	0.9;	%DE1 9
	52	2	2276.3404895243625	0.0	0.0	0.0	52	1.0	0.0	230.0	1	1.1	0.9;	%DK1 0
	53	2	1738.490334881271	0.0	0.0	0.0	53	1.0	0.0	230.0	1	1.1	0.9;	%DK2 0
	54	2	1151.4402042606152	0.0	0.0	0.0	54	1.0	0.0	230.0	1	1.1	0.9;	%EE6 0
	55	2	30970.49631196054	0.0	0.0	0.0	55	1.0	0.0	230.0	1	1.1	0.9;	%ES1 0
	56	2	669.4132385893417	0.0	0.0	0.0	56	1.0	0.0	230.0	1	1.1	0.9;	%ES4 0
	57	2	11138.122948784436	0.0	0.0	0.0	57	1.0	0.0	230.0	1	1.1	0.9;	%FI2 0
	58	2	14194.994190283684	0.0	0.0	0.0	58	1.0	0.0	230.0	1	1.1	0.9;	%FR1 0
	59	2	20899.665013378424	0.0	0.0	0.0	59	1.0	0.0	230.0	1	1.1	0.9;	%FR1 1
	60	2	12370.022805391314	0.0	0.0	0.0	60	1.0	0.0	230.0	1	1.1	0.9;	%FR1 2
	61	2	10649.581466463711	0.0	0.0	0.0	61	1.0	0.0	230.0	1	1.1	0.9;	%FR1 3
	62	2	8501.569726544887	0.0	0.0	0.0	62	1.0	0.0	230.0	1	1.1	0.9;	%FR1 4
	63	2	25150.67151649625	0.0	0.0	0.0	63	1.0	0.0	230.0	1	1.1	0.9;	%GB0 0
	64	2	21835.694381572797	0.0	0.0	0.0	64	1.0	0.0	230.0	1	1.1	0.9;	%GB0 1
	65	2	1157.08026353002	0.0	0.0	0.0	65	1.0	0.0	230.0	1	1.1	0.9;	%GB5 0
	66	2	4904.248677545993	0.0	0.0	0.0	66	1.0	0.0	230.0	1	1.1	0.9;	%GR1 0
	67	2	2094.668010762669	0.0	0.0	0.0	67	1.0	0.0	230.0	1	1.1	0.9;	%HR1 0
	68	2	5009.194109456998	0.0	0.0	0.0	68	1.0	0.0	230.0	1	1.1	0.9;	%HU1 0
	69	2	3510.1665999212614	0.0	0.0	0.0	69	1.0	0.0	230.0	1	1.1	0.9;	%IE5 0
	70	2	40407.302349045895	0.0	0.0	0.0	70	1.0	0.0	230.0	1	1.1	0.9;	%IT1 0
	71	2	2217.1931860254526	0.0	0.0	0.0	71	1.0	0.0	230.0	1	1.1	0.9;	%IT3 0
	72	2	1406.9041376764596	0.0	0.0	0.0	72	1.0	0.0	230.0	1	1.1	0.9;	%LT6 0
	73	2	931.4064988547061	0.0	0.0	0.0	73	1.0	0.0	230.0	1	1.1	0.9;	%LU1 0
	74	2	1018.5283795343074	0.0	0.0	0.0	74	1.0	0.0	230.0	1	1.1	0.9;	%LV6 0
	75	2	433.3666296920953	0.0	0.0	0.0	75	1.0	0.0	230.0	1	1.1	0.9;	%ME1 0
	76	2	990.7563562164516	0.0	0.0	0.0	76	1.0	0.0	230.0	1	1.1	0.9;	%MK1 0
	77	2	5457.622972081405	0.0	0.0	0.0	77	1.0	0.0	230.0	1	1.1	0.9;	%NL1 0
	78	2	7474.074231731228	0.0	0.0	0.0	78	1.0	0.0	230.0	1	1.1	0.9;	%NL1 1
	79	2	2456.76501846187	0.0	0.0	0.0	79	1.0	0.0	230.0	1	1.1	0.9;	%NL1 2
	80	2	16273.985437388596	0.0	0.0	0.0	80	1.0	0.0	230.0	1	1.1	0.9;	%NO2 0
	81	2	5766.294174822589	0.0	0.0	0.0	81	1.0	0.0	230.0	1	1.1	0.9;	%PL1 0
	82	2	3396.540059588203	0.0	0.0	0.0	82	1.0	0.0	230.0	1	1.1	0.9;	%PL1 1
	83	2	4666.658824155939	0.0	0.0	0.0	83	1.0	0.0	230.0	1	1.1	0.9;	%PL1 2
	84	2	5206.83330731151	0.0	0.0	0.0	84	1.0	0.0	230.0	1	1.1	0.9;	%PL1 3
	85	2	6597.248776228085	0.0	0.0	0.0	85	1.0	0.0	230.0	1	1.1	0.9;	%PT1 0
	86	2	6278.082862320948	0.0	0.0	0.0	86	1.0	0.0	230.0	1	1.1	0.9;	%RO1 0
	87	2	4932.524161249995	0.0	0.0	0.0	87	1.0	0.0	230.0	1	1.1	0.9;	%RS1 0
	88	2	19279.95744189494	0.0	0.0	0.0	88	1.0	0.0	230.0	1	1.1	0.9;	%SE2 0
	89	2	1619.2015886620084	0.0	0.0	0.0	89	1.0	0.0	230.0	1	1.1	0.9;	%SI1 0
	90	2	3503.204441191337	0.0	0.0	0.0	90	1.0	0.0	230.0	1	1.1	0.9;	%SK1 0
];

%% generator data
%	bus	Pg	Qg	Qmax	Qmin	Vg	mBase	status	Pmax	Pmin	H	n0	nE	nE_max	P_b_nom	carrier
mpc.gen = [
	1	0.0	0.0	0.0	-0.0	1.0	100.0	1	224.0	78.4	5.0	0	0	5	224.0	0;	%AL1 0 CCGT
	1	0.0	0.0	0.0	-0.0	1.0	100.0	1	224.0	78.4	2.8	0	0	5	224.0	1;	%AL1 0 OCGT
	1	0.0	0.0	0.0	-0.0	1.0	100.0	1	7.513214497607861	0.0	0.0	0	0	55	17.0	2;	%AL1 0 offwind
	1	0.0	0.0	0.0	-0.0	1.0	100.0	1	44.92727152904733	0.0	2.8	2	2	2	50.0	3;	%AL1 0 oil
	1	0.0	0.0	0.0	-0.0	1.0	100.0	1	7.080374324280484	0.0	0.0	0	0	25	38.0	4;	%AL1 0 onwind
	1	0.0	0.0	0.0	-0.0	1.0	100.0	1	24.099999999999998	0.0	3.5	2	2	2	26.0	5;	%AL1 0 ror
	1	0.0	0.0	0.0	-0.0	1.0	100.0	1	3.8196481421064	0.0	0.0	1	1	34	28.0	6;	%AL1 0 solar
	2	0.0	0.0	0.0	-0.0	1.0	100.0	1	214.74117647058824	78.4	5.0	17	17	67	224.0	0;	%AT1 0 CCGT
	2	0.0	0.0	0.0	-0.0	1.0	100.0	1	224.0	78.4	2.8	0	0	67	224.0	1;	%AT1 0 OCGT
	2	0.0	0.0	0.0	-0.0	1.0	100.0	1	15.888302353262059	0.0	0.0	49	49	390	38.0	4;	%AT1 0 onwind
	2	0.0	0.0	0.0	-0.0	1.0	100.0	1	7.1699788142634135	0.0	3.5	44	44	44	26.0	5;	%AT1 0 ror
	2	0.0	0.0	0.0	-0.0	1.0	100.0	1	7.222574175778073	0.0	0.0	28	28	529	28.0	6;	%AT1 0 solar
	3	0.0	0.0	0.0	-0.0	1.0	100.0	1	224.0	78.4	5.0	0	0	7	224.0	0;	%AT1 1 CCGT
	3	0.0	0.0	0.0	-0.0	1.0	100.0	1	224.0	78.4	2.8	0	0	7	224.0	1;	%AT1 1 OCGT
	3	0.0	0.0	0.0	-0.0	1.0	100.0	1	0.20716596257499334	0.0	0.0	2	2	37	38.0	4;	%AT1 1 onwind
	3	0.0	0.0	0.0	-0.0	1.0	100.0	1	6.731460935947598	0.0	3.5	9	9	9	26.0	5;	%AT1 1 ror
	3	0.0	0.0	0.0	-0.0	1.0	100.0	1	6.723168971045967	0.0	0.0	10	10	50	28.0	6;	%AT1 1 solar
	4	0.0	0.0	0.0	-0.0	1.0	100.0	1	83.7	78.4	5.0	1	1	18	224.0	0;	%AT1 2 CCGT
	4	0.0	0.0	0.0	-0.0	1.0	100.0	1	224.0	78.4	2.8	0	0	18	224.0	1;	%AT1 2 OCGT
	4	0.0	0.0	0.0	-0.0	1.0	100.0	1	0.7820791582412373	0.0	0.0	9	9	102	38.0	4;	%AT1 2 onwind
	4	0.0	0.0	0.0	-0.0	1.0	100.0	1	7.160360957260583	0.0	3.5	38	38	38	26.0	5;	%AT1 2 ror
	4	0.0	0.0	0.0	-0.0	1.0	100.0	1	7.722271323244891	0.0	0.0	20	20	138	28.0	6;	%AT1 2 solar
	5	0.0	0.0	0.0	-0.0	1.0	100.0	1	206.33333333333334	78.4	5.0	3	3	43	224.0	0;	%AT1 3 CCGT
	5	0.0	0.0	0.0	-0.0	1.0	100.0	1	224.0	78.4	2.8	0	0	43	224.0	1;	%AT1 3 OCGT
	5	0.0	0.0	0.0	-0.0	1.0	100.0	1	6.76043388354797	0.0	0.0	28	28	249	38.0	4;	%AT1 3 onwind
	5	0.0	0.0	0.0	-0.0	1.0	100.0	1	7.252573298137756	0.0	3.5	94	94	94	26.0	5;	%AT1 3 ror
	5	0.0	0.0	0.0	-0.0	1.0	100.0	1	7.017463411822095	0.0	0.0	23	23	338	28.0	6;	%AT1 3 solar
	6	0.0	0.0	0.0	-0.0	1.0	100.0	1	224.0	78.4	5.0	0	0	11	224.0	0;	%BA1 0 CCGT
	6	0.0	0.0	0.0	-0.0	1.0	100.0	1	224.0	78.4	2.8	0	0	11	224.0	1;	%BA1 0 OCGT
	6	0.0	0.0	0.0	-0.0	1.0	100.0	1	209.5	110.0	3.0	4	4	4	275.0	7;	%BA1 0 lignite
	6	0.0	0.0	0.0	-0.0	1.0	100.0	1	10.524052096890864	0.0	0.0	3	3	61	38.0	4;	%BA1 0 onwind
	6	0.0	0.0	0.0	-0.0	1.0	100.0	1	4.121497302031589	0.0	0.0	2	2	82	28.0	6;	%BA1 0 solar
	7	0.0	0.0	0.0	-0.0	1.0	100.0	1	218.17368421052632	78.4	5.0	19	19	100	224.0	0;	%BE1 0 CCGT
	7	0.0	0.0	0.0	-0.0	1.0	100.0	1	224.0	78.4	2.8	0	0	100	224.0	1;	%BE1 0 OCGT
	7	0.0	0.0	0.0	-0.0	1.0	100.0	1	9.925925925925926	2.0436	2.8	27	27	27	10.0	8;	%BE1 0 biomass
	7	0.0	0.0	0.0	-0.0	1.0	100.0	1	5.096720742112475	0.0	0.0	137	137	1308	17.0	2;	%BE1 0 offwind
	7	0.0	0.0	0.0	-0.0	1.0	100.0	1	7.8849741464874565	0.0	0.0	28	28	585	38.0	4;	%BE1 0 onwind
	7	0.0	0.0	0.0	-0.0	1.0	100.0	1	8.976786217002692	0.0	0.0	120	120	794	28.0	6;	%BE1 0 solar
	8	0.0	0.0	0.0	-0.0	1.0	100.0	1	155.0	78.4	5.0	3	3	38	224.0	0;	%BE1 1 CCGT
	8	0.0	0.0	0.0	-0.0	1.0	100.0	1	224.0	78.4	2.8	0	0	38	224.0	1;	%BE1 1 OCGT
	8	0.0	0.0	0.0	-0.0	1.0	100.0	1	5.407262800895583	0.0	0.0	38	38	224	38.0	4;	%BE1 1 onwind
	8	0.0	0.0	0.0	-0.0	1.0	100.0	1	15.438339710000175	0.0	3.5	4	4	4	26.0	5;	%BE1 1 ror
	8	0.0	0.0	0.0	-0.0	1.0	100.0	1	7.870244727698714	0.0	0.0	82	82	304	28.0	6;	%BE1 1 solar
	9	0.0	0.0	0.0	-0.0	1.0	100.0	1	224.0	78.4	5.0	0	0	50	224.0	0;	%BG1 0 CCGT
	9	0.0	0.0	0.0	-0.0	1.0	100.0	1	224.0	78.4	2.8	0	0	50	224.0	1;	%BG1 0 OCGT
	9	0.0	0.0	0.0	-0.0	1.0	100.0	1	160.41703044199232	89.375	3.0	1	1	1	275.0	9;	%BG1 0 coal
	9	0.0	0.0	0.0	-0.0	1.0	100.0	1	242.52278758367152	110.0	3.0	6	6	6	275.0	7;	%BG1 0 lignite
	9	0.0	0.0	0.0	-0.0	1.0	100.0	1	693.3333333333334	500.0	5.5	3	3	3	1000.0	10;	%BG1 0 nuclear
	9	0.0	0.0	0.0	-0.0	1.0	100.0	1	9.882922118594466	0.0	0.0	0	0	657	17.0	2;	%BG1 0 offwind
	9	0.0	0.0	0.0	-0.0	1.0	100.0	1	7.3469853655779565	0.0	0.0	19	19	294	38.0	4;	%BG1 0 onwind
	9	0.0	0.0	0.0	-0.0	1.0	100.0	1	13.478389514840668	0.0	3.5	5	5	5	26.0	5;	%BG1 0 ror
	9	0.0	0.0	0.0	-0.0	1.0	100.0	1	6.2000759167170445	0.0	0.0	39	39	399	28.0	6;	%BG1 0 solar
	10	0.0	0.0	0.0	-0.0	1.0	100.0	1	224.0	78.4	5.0	0	0	12	224.0	0;	%CH1 0 CCGT
	10	0.0	0.0	0.0	-0.0	1.0	100.0	1	224.0	78.4	2.8	0	0	12	224.0	1;	%CH1 0 OCGT
	10	0.0	0.0	0.0	-0.0	1.0	100.0	1	8.795428571428571	2.0436	2.8	7	7	7	10.0	8;	%CH1 0 biomass
	10	0.0	0.0	0.0	-0.0	1.0	100.0	1	0.731463877796547	0.0	0.0	1	1	70	38.0	4;	%CH1 0 onwind
	10	0.0	0.0	0.0	-0.0	1.0	100.0	1	2.3756292587684125	0.0	3.5	24	24	24	26.0	5;	%CH1 0 ror
	10	0.0	0.0	0.0	-0.0	1.0	100.0	1	9.787897111195733	0.0	0.0	23	23	94	28.0	6;	%CH1 0 solar
	11	0.0	0.0	0.0	-0.0	1.0	100.0	1	224.0	78.4	5.0	0	0	23	224.0	0;	%CH1 1 CCGT
	11	0.0	0.0	0.0	-0.0	1.0	100.0	1	224.0	78.4	2.8	0	0	23	224.0	1;	%CH1 1 OCGT
	11	0.0	0.0	0.0	-0.0	1.0	100.0	1	9.692485714285713	2.0436	2.8	7	7	7	10.0	8;	%CH1 1 biomass
	11	0.0	0.0	0.0	-0.0	1.0	100.0	1	0.039236790290091014	0.0	0.0	1	1	132	38.0	4;	%CH1 1 onwind
	11	0.0	0.0	0.0	-0.0	1.0	100.0	1	3.832662022863876	0.0	3.5	66	66	66	26.0	5;	%CH1 1 ror
	11	0.0	0.0	0.0	-0.0	1.0	100.0	1	8.998270703471485	0.0	0.0	25	25	179	28.0	6;	%CH1 1 solar
	12	0.0	0.0	0.0	-0.0	1.0	100.0	1	224.0	78.4	5.0	0	0	45	224.0	0;	%CH1 2 CCGT
	12	0.0	0.0	0.0	-0.0	1.0	100.0	1	224.0	78.4	2.8	0	0	45	224.0	1;	%CH1 2 OCGT
	12	0.0	0.0	0.0	-0.0	1.0	100.0	1	9.847608333333332	2.0436	2.8	12	12	12	10.0	8;	%CH1 2 biomass
	12	0.0	0.0	0.0	-0.0	1.0	100.0	1	990.0	500.0	5.5	3	3	3	1000.0	10;	%CH1 2 nuclear
	12	0.0	0.0	0.0	-0.0	1.0	100.0	1	0.6290330606818286	0.0	0.0	1	1	264	38.0	4;	%CH1 2 onwind
	12	0.0	0.0	0.0	-0.0	1.0	100.0	1	2.4583825386521125	0.0	3.5	50	50	50	26.0	5;	%CH1 2 ror
	12	0.0	0.0	0.0	-0.0	1.0	100.0	1	8.805702943146823	0.0	0.0	22	22	358	28.0	6;	%CH1 2 solar
	13	0.0	0.0	0.0	-0.0	1.0	100.0	1	224.0	78.4	5.0	0	0	18	224.0	0;	%CH1 3 CCGT
	13	0.0	0.0	0.0	-0.0	1.0	100.0	1	224.0	78.4	2.8	0	0	18	224.0	1;	%CH1 3 OCGT
	13	0.0	0.0	0.0	-0.0	1.0	100.0	1	9.7455	2.0436	2.8	9	9	9	10.0	8;	%CH1 3 biomass
	13	0.0	0.0	0.0	-0.0	1.0	100.0	1	0.20166695003824986	0.0	0.0	1	1	104	38.0	4;	%CH1 3 onwind
	13	0.0	0.0	0.0	-0.0	1.0	100.0	1	2.4326709259010495	0.0	3.5	32	32	32	26.0	5;	%CH1 3 ror
	13	0.0	0.0	0.0	-0.0	1.0	100.0	1	7.217784577366251	0.0	0.0	37	37	141	28.0	6;	%CH1 3 solar
	14	0.0	0.0	0.0	-0.0	1.0	100.0	1	78.4	78.4	5.0	1	1	10	224.0	0;	%CZ1 0 CCGT
	14	0.0	0.0	0.0	-0.0	1.0	100.0	1	224.0	78.4	2.8	0	0	10	224.0	1;	%CZ1 0 OCGT
	14	0.0	0.0	0.0	-0.0	1.0	100.0	1	9.197013914332691	0.0	0.0	2	2	55	38.0	4;	%CZ1 0 onwind
	14	0.0	0.0	0.0	-0.0	1.0	100.0	1	3.69095467232312	0.0	0.0	12	12	75	28.0	6;	%CZ1 0 solar
	15	0.0	0.0	0.0	-0.0	1.0	100.0	1	185.6	78.4	5.0	5	5	62	224.0	0;	%CZ1 1 CCGT
	15	0.0	0.0	0.0	-0.0	1.0	100.0	1	224.0	78.4	2.8	0	0	62	224.0	1;	%CZ1 1 OCGT
	15	0.0	0.0	0.0	-0.0	1.0	100.0	1	262.44100892134185	110.0	3.0	10	10	10	275.0	7;	%CZ1 1 lignite
	15	0.0	0.0	0.0	-0.0	1.0	100.0	1	750.0	500.0	5.5	3	3	3	1000.0	10;	%CZ1 1 nuclear
	15	0.0	0.0	0.0	-0.0	1.0	100.0	1	4.867580105832321	0.0	0.0	5	5	365	38.0	4;	%CZ1 1 onwind
	15	0.0	0.0	0.0	-0.0	1.0	100.0	1	10.311641498240308	0.0	3.5	2	2	2	26.0	5;	%CZ1 1 ror
	15	0.0	0.0	0.0	-0.0	1.0	100.0	1	5.737699685708813	0.0	0.0	33	33	495	28.0	6;	%CZ1 1 solar
	16	0.0	0.0	0.0	-0.0	1.0	100.0	1	224.0	78.4	5.0	0	0	36	224.0	0;	%CZ1 2 CCGT
	16	0.0	0.0	0.0	-0.0	1.0	100.0	1	224.0	78.4	2.8	0	0	36	224.0	1;	%CZ1 2 OCGT
	16	0.0	0.0	0.0	-0.0	1.0	100.0	1	251.74418635111147	110.0	3.0	4	4	4	275.0	7;	%CZ1 2 lignite
	16	0.0	0.0	0.0	-0.0	1.0	100.0	1	680.0	500.0	5.5	3	3	3	1000.0	10;	%CZ1 2 nuclear
	16	0.0	0.0	0.0	-0.0	1.0	100.0	1	13.438029888618047	0.0	0.0	4	4	212	38.0	4;	%CZ1 2 onwind
	16	0.0	0.0	0.0	-0.0	1.0	100.0	1	5.089324603415755	0.0	0.0	30	30	287	28.0	6;	%CZ1 2 solar
	17	0.0	0.0	0.0	-0.0	1.0	100.0	1	213.15152631578948	78.4	5.0	19	19	157	224.0	0;	%DE1 0 CCGT
	17	0.0	0.0	0.0	-0.0	1.0	100.0	1	224.0	78.4	2.8	0	0	157	224.0	1;	%DE1 0 OCGT
	17	0.0	0.0	0.0	-0.0	1.0	100.0	1	9.355047777777777	2.0436	2.8	9	9	9	10.0	8;	%DE1 0 biomass
	17	0.0	0.0	0.0	-0.0	1.0	100.0	1	269.05434856878185	110.0	3.0	42	42	42	275.0	7;	%DE1 0 lignite
	17	0.0	0.0	0.0	-0.0	1.0	100.0	1	48.55	0.0	2.8	2	2	2	50.0	3;	%DE1 0 oil
	17	0.0	0.0	0.0	-0.0	1.0	100.0	1	3.8890280002147617	0.0	0.0	18	18	922	38.0	4;	%DE1 0 onwind
	17	0.0	0.0	0.0	-0.0	1.0	100.0	1	15.514163416056807	0.0	3.5	1	1	1	26.0	5;	%DE1 0 ror
	17	0.0	0.0	0.0	-0.0	1.0	100.0	1	7.426613654343931	0.0	0.0	46	46	1251	28.0	6;	%DE1 0 solar
	18	0.0	0.0	0.0	-0.0	1.0	100.0	1	128.3	78.4	5.0	2	2	33	224.0	0;	%DE1 1 CCGT
	18	0.0	0.0	0.0	-0.0	1.0	100.0	1	224.0	78.4	2.8	0	0	33	224.0	1;	%DE1 1 OCGT
	18	0.0	0.0	0.0	-0.0	1.0	100.0	1	9.9771036	2.0436	2.8	25	25	25	10.0	8;	%DE1 1 biomass
	18	0.0	0.0	0.0	-0.0	1.0	100.0	1	1.1563404683384149	0.0	0.0	41	41	190	38.0	4;	%DE1 1 onwind
	18	0.0	0.0	0.0	-0.0	1.0	100.0	1	16.39392268286588	0.0	3.5	2	2	2	26.0	5;	%DE1 1 ror
	18	0.0	0.0	0.0	-0.0	1.0	100.0	1	6.010031518006491	0.0	0.0	55	55	258	28.0	6;	%DE1 1 solar
	19	0.0	0.0	0.0	-0.0	1.0	100.0	1	211.56666666666666	78.4	5.0	9	9	111	224.0	0;	%DE1 10 CCGT
	19	0.0	0.0	0.0	-0.0	1.0	100.0	1	224.0	78.4	2.8	0	0	111	224.0	1;	%DE1 10 OCGT
	19	0.0	0.0	0.0	-0.0	1.0	100.0	1	9.826045714285716	2.0436	2.8	35	35	35	10.0	8;	%DE1 10 biomass
	19	0.0	0.0	0.0	-0.0	1.0	100.0	1	15.354944204678995	0.0	0.0	370	370	1459	17.0	2;	%DE1 10 offwind
	19	0.0	0.0	0.0	-0.0	1.0	100.0	1	2.6926178792745703	0.0	0.0	60	60	653	38.0	4;	%DE1 10 onwind
	19	0.0	0.0	0.0	-0.0	1.0	100.0	1	7.189382440679068	0.0	0.0	58	58	886	28.0	6;	%DE1 10 solar
	20	0.0	0.0	0.0	-0.0	1.0	100.0	1	197.88333333333333	78.4	5.0	6	6	24	224.0	0;	%DE1 11 CCGT
	20	0.0	0.0	0.0	-0.0	1.0	100.0	1	224.0	78.4	2.8	0	0	24	224.0	1;	%DE1 11 OCGT
	20	0.0	0.0	0.0	-0.0	1.0	100.0	1	9.57325	2.0436	2.8	4	4	4	10.0	8;	%DE1 11 biomass
	20	0.0	0.0	0.0	-0.0	1.0	100.0	1	3.417284450545918	0.0	0.0	19	19	137	38.0	4;	%DE1 11 onwind
	20	0.0	0.0	0.0	-0.0	1.0	100.0	1	2.374025006427669	0.0	3.5	1	1	1	26.0	5;	%DE1 11 ror
	20	0.0	0.0	0.0	-0.0	1.0	100.0	1	5.472275201063595	0.0	0.0	24	24	186	28.0	6;	%DE1 11 solar
	21	0.0	0.0	0.0	-0.0	1.0	100.0	1	212.84425	78.4	5.0	2	2	45	224.0	0;	%DE1 12 CCGT
	21	0.0	0.0	0.0	-0.0	1.0	100.0	1	78.4	78.4	2.8	1	1	45	224.0	1;	%DE1 12 OCGT
	21	0.0	0.0	0.0	-0.0	1.0	100.0	1	9.737791304347825	2.0436	2.8	23	23	23	10.0	8;	%DE1 12 biomass
	21	0.0	0.0	0.0	-0.0	1.0	100.0	1	253.00584193683684	89.375	3.0	7	7	7	275.0	9;	%DE1 12 coal
	21	0.0	0.0	0.0	-0.0	1.0	100.0	1	1.670787362029122	0.0	0.0	24	24	261	38.0	4;	%DE1 12 onwind
	21	0.0	0.0	0.0	-0.0	1.0	100.0	1	12.99516688259383	0.0	3.5	1	1	1	26.0	5;	%DE1 12 ror
	21	0.0	0.0	0.0	-0.0	1.0	100.0	1	7.451986024438993	0.0	0.0	58	58	354	28.0	6;	%DE1 12 solar
	22	0.0	0.0	0.0	-0.0	1.0	100.0	1	204.07599999999996	78.4	5.0	5	5	81	224.0	0;	%DE1 13 CCGT
	22	0.0	0.0	0.0	-0.0	1.0	100.0	1	224.0	78.4	2.8	0	0	81	224.0	1;	%DE1 13 OCGT
	22	0.0	0.0	0.0	-0.0	1.0	100.0	1	9.839105918367348	2.0436	2.8	49	49	49	10.0	8;	%DE1 13 biomass
	22	0.0	0.0	0.0	-0.0	1.0	100.0	1	244.3132934892412	89.375	3.0	3	3	3	275.0	9;	%DE1 13 coal
	22	0.0	0.0	0.0	-0.0	1.0	100.0	1	5.147518754626135	0.0	0.0	6	6	1064	17.0	2;	%DE1 13 offwind
	22	0.0	0.0	0.0	-0.0	1.0	100.0	1	4.099982588970026	0.0	0.0	100	100	476	38.0	4;	%DE1 13 onwind
	22	0.0	0.0	0.0	-0.0	1.0	100.0	1	9.900104281227435	0.0	3.5	1	1	1	26.0	5;	%DE1 13 ror
	22	0.0	0.0	0.0	-0.0	1.0	100.0	1	8.54313036255972	0.0	0.0	104	104	646	28.0	6;	%DE1 13 solar
	23	0.0	0.0	0.0	-0.0	1.0	100.0	1	224.0	78.4	5.0	0	0	14	224.0	0;	%DE1 14 CCGT
	23	0.0	0.0	0.0	-0.0	1.0	100.0	1	224.0	78.4	2.8	0	0	14	224.0	1;	%DE1 14 OCGT
	23	0.0	0.0	0.0	-0.0	1.0	100.0	1	8.88375	2.0436	2.8	5	5	5	10.0	8;	%DE1 14 biomass
	23	0.0	0.0	0.0	-0.0	1.0	100.0	1	5.290050320048899	0.0	0.0	25	25	80	38.0	4;	%DE1 14 onwind
	23	0.0	0.0	0.0	-0.0	1.0	100.0	1	2.1500226469332304	0.0	3.5	1	1	1	26.0	5;	%DE1 14 ror
	23	0.0	0.0	0.0	-0.0	1.0	100.0	1	7.670375539138933	0.0	0.0	20	20	109	28.0	6;	%DE1 14 solar
	24	0.0	0.0	0.0	-0.0	1.0	100.0	1	208.4628571428571	78.4	5.0	7	7	53	224.0	0;	%DE1 15 CCGT
	24	0.0	0.0	0.0	-0.0	1.0	100.0	1	224.0	78.4	2.8	0	0	53	224.0	1;	%DE1 15 OCGT
	24	0.0	0.0	0.0	-0.0	1.0	100.0	1	9.874929523809524	2.0436	2.8	21	21	21	10.0	8;	%DE1 15 biomass
	24	0.0	0.0	0.0	-0.0	1.0	100.0	1	251.99610146060095	89.375	3.0	3	3	3	275.0	9;	%DE1 15 coal
	24	0.0	0.0	0.0	-0.0	1.0	100.0	1	2.7955530196312335	0.0	0.0	48	48	307	38.0	4;	%DE1 15 onwind
	24	0.0	0.0	0.0	-0.0	1.0	100.0	1	25.298516478036557	0.0	3.5	4	4	4	26.0	5;	%DE1 15 ror
	24	0.0	0.0	0.0	-0.0	1.0	100.0	1	7.3329531841761835	0.0	0.0	53	53	417	28.0	6;	%DE1 15 solar
	25	0.0	0.0	0.0	-0.0	1.0	100.0	1	78.4	78.4	5.0	1	1	20	224.0	0;	%DE1 16 CCGT
	25	0.0	0.0	0.0	-0.0	1.0	100.0	1	224.0	78.4	2.8	0	0	20	224.0	1;	%DE1 16 OCGT
	25	0.0	0.0	0.0	-0.0	1.0	100.0	1	9.967404615384615	2.0436	2.8	13	13	13	10.0	8;	%DE1 16 biomass
	25	0.0	0.0	0.0	-0.0	1.0	100.0	1	2.2250921020828227	0.0	0.0	29	29	115	38.0	4;	%DE1 16 onwind
	25	0.0	0.0	0.0	-0.0	1.0	100.0	1	14.997157970259375	0.0	3.5	2	2	2	26.0	5;	%DE1 16 ror
	25	0.0	0.0	0.0	-0.0	1.0	100.0	1	5.544665469336007	0.0	0.0	34	34	156	28.0	6;	%DE1 16 solar
	26	0.0	0.0	0.0	-0.0	1.0	100.0	1	176.9	78.4	5.0	2	2	34	224.0	0;	%DE1 17 CCGT
	26	0.0	0.0	0.0	-0.0	1.0	100.0	1	224.0	78.4	2.8	0	0	34	224.0	1;	%DE1 17 OCGT
	26	0.0	0.0	0.0	-0.0	1.0	100.0	1	9.906166666666667	2.0436	2.8	21	21	21	10.0	8;	%DE1 17 biomass
	26	0.0	0.0	0.0	-0.0	1.0	100.0	1	110.0	110.0	3.0	1	1	1	275.0	7;	%DE1 17 lignite
	26	0.0	0.0	0.0	-0.0	1.0	100.0	1	2.856945774341058	0.0	0.0	43	43	197	38.0	4;	%DE1 17 onwind
	26	0.0	0.0	0.0	-0.0	1.0	100.0	1	8.151305860527948	0.0	3.5	1	1	1	26.0	5;	%DE1 17 ror
	26	0.0	0.0	0.0	-0.0	1.0	100.0	1	5.690936819898569	0.0	0.0	55	55	267	28.0	6;	%DE1 17 solar
	27	0.0	0.0	0.0	-0.0	1.0	100.0	1	78.4	78.4	5.0	1	1	19	224.0	0;	%DE1 18 CCGT
	27	0.0	0.0	0.0	-0.0	1.0	100.0	1	224.0	78.4	2.8	0	0	19	224.0	1;	%DE1 18 OCGT
	27	0.0	0.0	0.0	-0.0	1.0	100.0	1	9.92174923076923	2.0436	2.8	13	13	13	10.0	8;	%DE1 18 biomass
	27	0.0	0.0	0.0	-0.0	1.0	100.0	1	0.5138784964202837	0.0	0.0	13	13	108	38.0	4;	%DE1 18 onwind
	27	0.0	0.0	0.0	-0.0	1.0	100.0	1	14.983458199038537	0.0	3.5	19	19	19	26.0	5;	%DE1 18 ror
	27	0.0	0.0	0.0	-0.0	1.0	100.0	1	6.821510981544471	0.0	0.0	32	32	147	28.0	6;	%DE1 18 solar
	28	0.0	0.0	0.0	-0.0	1.0	100.0	1	170.7	78.4	5.0	1	1	26	224.0	0;	%DE1 19 CCGT
	28	0.0	0.0	0.0	-0.0	1.0	100.0	1	224.0	78.4	2.8	0	0	26	224.0	1;	%DE1 19 OCGT
	28	0.0	0.0	0.0	-0.0	1.0	100.0	1	9.65496888888889	2.0436	2.8	27	27	27	10.0	8;	%DE1 19 biomass
	28	0.0	0.0	0.0	-0.0	1.0	100.0	1	1.717775360520872	0.0	0.0	23	23	153	38.0	4;	%DE1 19 onwind
	28	0.0	0.0	0.0	-0.0	1.0	100.0	1	22.793240089092617	0.0	3.5	8	8	8	26.0	5;	%DE1 19 ror
	28	0.0	0.0	0.0	-0.0	1.0	100.0	1	5.73014442938371	0.0	0.0	52	52	208	28.0	6;	%DE1 19 solar
	29	0.0	0.0	0.0	-0.0	1.0	100.0	1	127.0	78.4	5.0	1	1	62	224.0	0;	%DE1 2 CCGT
	29	0.0	0.0	0.0	-0.0	1.0	100.0	1	224.0	78.4	2.8	0	0	62	224.0	1;	%DE1 2 OCGT
	29	0.0	0.0	0.0	-0.0	1.0	100.0	1	9.838286904761905	2.0436	2.8	42	42	42	10.0	8;	%DE1 2 biomass
	29	0.0	0.0	0.0	-0.0	1.0	100.0	1	228.17939674938563	89.375	3.0	2	2	2	275.0	9;	%DE1 2 coal
	29	0.0	0.0	0.0	-0.0	1.0	100.0	1	6.257681076797709	0.0	0.0	8	8	810	17.0	2;	%DE1 2 offwind
	29	0.0	0.0	0.0	-0.0	1.0	100.0	1	5.436701030944417	0.0	0.0	89	89	363	38.0	4;	%DE1 2 onwind
	29	0.0	0.0	0.0	-0.0	1.0	100.0	1	0.11000115868030481	0.0	3.5	1	1	1	26.0	5;	%DE1 2 ror
	29	0.0	0.0	0.0	-0.0	1.0	100.0	1	6.893355180873203	0.0	0.0	86	86	492	28.0	6;	%DE1 2 solar
	30	0.0	0.0	0.0	-0.0	1.0	100.0	1	203.95499999999998	78.4	5.0	2	2	59	224.0	0;	%DE1 20 CCGT
	30	0.0	0.0	0.0	-0.0	1.0	100.0	1	224.0	78.4	2.8	0	0	59	224.0	1;	%DE1 20 OCGT
	30	0.0	0.0	0.0	-0.0	1.0	100.0	1	9.855548571428573	2.0436	2.8	35	35	35	10.0	8;	%DE1 20 biomass
	30	0.0	0.0	0.0	-0.0	1.0	100.0	1	174.24608479043997	89.375	3.0	2	2	2	275.0	9;	%DE1 20 coal
	30	0.0	0.0	0.0	-0.0	1.0	100.0	1	1.0375171022117344	0.0	0.0	72	72	345	38.0	4;	%DE1 20 onwind
	30	0.0	0.0	0.0	-0.0	1.0	100.0	1	22.921941444748573	0.0	3.5	2	2	2	26.0	5;	%DE1 20 ror
	30	0.0	0.0	0.0	-0.0	1.0	100.0	1	7.400397757805521	0.0	0.0	96	96	468	28.0	6;	%DE1 20 solar
	31	0.0	0.0	0.0	-0.0	1.0	100.0	1	164.84	78.4	5.0	3	3	107	224.0	0;	%DE1 21 CCGT
	31	0.0	0.0	0.0	-0.0	1.0	100.0	1	224.0	78.4	2.8	0	0	107	224.0	1;	%DE1 21 OCGT
	31	0.0	0.0	0.0	-0.0	1.0	100.0	1	9.934234782608694	2.0436	2.8	23	23	23	10.0	8;	%DE1 21 biomass
	31	0.0	0.0	0.0	-0.0	1.0	100.0	1	272.6583187556654	110.0	3.0	25	25	25	275.0	7;	%DE1 21 lignite
	31	0.0	0.0	0.0	-0.0	1.0	100.0	1	2.7086773846847048	0.0	0.0	61	61	629	38.0	4;	%DE1 21 onwind
	31	0.0	0.0	0.0	-0.0	1.0	100.0	1	19.77920834125226	0.0	3.5	2	2	2	26.0	5;	%DE1 21 ror
	31	0.0	0.0	0.0	-0.0	1.0	100.0	1	5.394627912194965	0.0	0.0	74	74	853	28.0	6;	%DE1 21 solar
	32	0.0	0.0	0.0	-0.0	1.0	100.0	1	219.24333333333334	78.4	5.0	6	6	20	224.0	0;	%DE1 22 CCGT
	32	0.0	0.0	0.0	-0.0	1.0	100.0	1	224.0	78.4	2.8	0	0	20	224.0	1;	%DE1 22 OCGT
	32	0.0	0.0	0.0	-0.0	1.0	100.0	1	9.921282	2.0436	2.8	10	10	10	10.0	8;	%DE1 22 biomass
	32	0.0	0.0	0.0	-0.0	1.0	100.0	1	2.0167604766828298	0.0	0.0	5	5	115	38.0	4;	%DE1 22 onwind
	32	0.0	0.0	0.0	-0.0	1.0	100.0	1	0.7030074050204935	0.0	3.5	1	1	1	26.0	5;	%DE1 22 ror
...
];

%% generator cost data
%	2	startup	shutdown	n	c(n-1)	...	c0	investment
mpc.gencost = [
	2	258930.8689655173	103572.34758620693	3	0.0	1321.0758620689658	0.0	0.0	86095.34090144395;	%AL1 0 CCGT
	2	356686.5365853659	142674.61463414636	3	0.0	1819.829268292683	0.0	0.0	39206.26513460879;	%AL1 0 OCGT
	2	0.0	0.0	3	0.0	0.51	0.0	0.0	12203.423861435862;	%AL1 0 offwind
	2	0.0	0.0	3	0.0	5061.142857142857	0.0	0.0	7349.357601754578;	%AL1 0 oil
	2	0.0	0.0	3	0.0	0.51	0.0	0.0	14171.57161207722;	%AL1 0 onwind
	2	0.0	0.0	3	0.0	0.0	0.0	0.0	30187.20991294965;	%AL1 0 ror
	2	0.0	0.0	3	0.0	0.33999999999999997	0.0	0.0	3869.083541564136;	%AL1 0 solar
	2	257856.28003941092	103142.51201576437	3	0.0	1315.5932655071986	0.0	0.0	86095.34090144395;	%AT1 0 CCGT
	2	356686.5365853659	142674.61463414636	3	0.0	1819.8292682926829	0.0	0.0	39206.26513460878;	%AT1 0 OCGT
	2	0.0	0.0	3	0.0	0.51	0.0	0.0	14171.57161207722;	%AT1 0 onwind
	2	0.0	0.0	3	0.0	0.0	0.0	0.0	30187.20991294965;	%AT1 0 ror
	2	0.0	0.0	3	0.0	0.34	0.0	0.0	3869.0835415641363;	%AT1 0 solar
	2	258930.8689655173	103572.34758620693	3	0.0	1321.0758620689658	0.0	0.0	86095.34090144395;	%AT1 1 CCGT
	2	356686.5365853659	142674.61463414636	3	0.0	1819.829268292683	0.0	0.0	39206.26513460879;	%AT1 1 OCGT
	2	0.0	0.0	3	0.0	0.5099999999999999	0.0	0.0	14171.57161207722;	%AT1 1 onwind
	2	0.0	0.0	3	0.0	0.0	0.0	0.0	30187.20991294965;	%AT1 1 ror
	2	0.0	0.0	3	0.0	0.34	0.0	0.0	3869.083541564136;	%AT1 1 solar
	2	258930.8689655173	103572.34758620693	3	0.0	1321.0758620689658	0.0	0.0	86095.34090144395;	%AT1 2 CCGT
	2	356686.5365853659	142674.61463414636	3	0.0	1819.829268292683	0.0	0.0	39206.26513460879;	%AT1 2 OCGT
	2	0.0	0.0	3	0.0	0.5099999999999999	0.0	0.0	14171.571612077218;	%AT1 2 onwind
	2	0.0	0.0	3	0.0	0.0	0.0	0.0	30187.20991294965;	%AT1 2 ror
	2	0.0	0.0	3	0.0	0.34	0.0	0.0	3869.0835415641363;	%AT1 2 solar
	2	256401.45225769974	102560.5809030799	3	0.0	1308.1706747841822	0.0	0.0	86095.34090144395;	%AT1 3 CCGT
	2	356686.5365853659	142674.61463414636	3	0.0	1819.829268292683	0.0	0.0	39206.26513460879;	%AT1 3 OCGT
	2	0.0	0.0	3	0.0	0.51	0.0	0.0	14171.57161207722;	%AT1 3 onwind
	2	0.0	0.0	3	0.0	0.0	0.0	0.0	30187.20991294965;	%AT1 3 ror
	2	0.0	0.0	3	0.0	0.34	0.0	0.0	3869.0835415641363;	%AT1 3 solar
	2	258930.8689655173	103572.34758620693	3	0.0	1321.0758620689658	0.0	0.0	86095.34090144395;	%BA1 0 CCGT
	2	356686.5365853659	142674.61463414636	3	0.0	1819.829268292683	0.0	0.0	39206.26513460879;	%BA1 0 OCGT
	2	114891.66666666664	45956.666666666664	3	0.0	417.78787878787875	0.0	0.0	373548.0338400873;	%BA1 0 lignite
	2	0.0	0.0	3	0.0	0.51	0.0	0.0	14171.57161207722;	%BA1 0 onwind
	2	0.0	0.0	3	0.0	0.3400000000000001	0.0	0.0	3869.083541564137;	%BA1 0 solar
	2	311418.42317763687	124567.36927105475	3	0.0	1588.8695060083512	0.0	0.0	86095.34090144394;	%BE1 0 CCGT
	2	356686.5365853659	142674.61463414636	3	0.0	1819.829268292683	0.0	0.0	39206.26513460879;	%BE1 0 OCGT
	2	2587.1106382978724	1034.844255319149	3	0.0	506.38297872340434	0.0	0.0	10793.178335736891;	%BE1 0 biomass
	2	0.0	0.0	3	0.0	0.51	0.0	0.0	12656.015464784545;	%BE1 0 offwind
	2	0.0	0.0	3	0.0	0.51	0.0	0.0	14171.571612077221;	%BE1 0 onwind
	2	0.0	0.0	3	0.0	0.34	0.0	0.0	3869.0835415641363;	%BE1 0 solar
	2	258930.86896551726	103572.34758620692	3	0.0	1321.0758620689655	0.0	0.0	86095.34090144394;	%BE1 1 CCGT
	2	356686.5365853659	142674.61463414636	3	0.0	1819.8292682926829	0.0	0.0	39206.26513460878;	%BE1 1 OCGT
	2	0.0	0.0	3	0.0	0.5099999999999999	0.0	0.0	14171.57161207722;	%BE1 1 onwind
	2	0.0	0.0	3	0.0	0.0	0.0	0.0	30187.20991294965;	%BE1 1 ror
	2	0.0	0.0	3	0.0	0.34	0.0	0.0	3869.0835415641363;	%BE1 1 solar
	2	258930.8689655173	103572.34758620693	3	0.0	1321.0758620689658	0.0	0.0	86095.34090144394;	%BG1 0 CCGT
	2	356686.5365853659	142674.61463414636	3	0.0	1819.8292682926829	0.0	0.0	39206.26513460879;	%BG1 0 OCGT
	2	214208.85416666666	85683.54166666666	3	0.0	958.6969696969696	0.0	0.0	373548.0338400873;	%BG1 0 coal
	2	114891.66666666663	45956.66666666666	3	0.0	417.7878787878787	0.0	0.0	373548.03384008724;	%BG1 0 lignite
	2	483598.48484848486	193439.39393939392	3	0.0	386.8787878787879	0.0	0.0	2743181.3892859137;	%BG1 0 nuclear
	2	0.0	0.0	3	0.0	0.51	0.0	0.0	12856.475527681592;	%BG1 0 offwind
	2	0.0	0.0	3	0.0	0.5099999999999999	0.0	0.0	14171.57161207722;	%BG1 0 onwind
	2	0.0	0.0	3	0.0	0.0	0.0	0.0	30187.20991294965;	%BG1 0 ror
	2	0.0	0.0	3	0.0	0.33999999999999997	0.0	0.0	3869.0835415641363;	%BG1 0 solar
	2	258930.8689655173	103572.34758620693	3	0.0	1321.0758620689658	0.0	0.0	86095.34090144395;	%CH1 0 CCGT
	2	356686.5365853659	142674.61463414636	3	0.0	1819.829268292683	0.0	0.0	39206.26513460879;	%CH1 0 OCGT
	2	2587.1106382978724	1034.844255319149	3	0.0	506.3829787234042	0.0	0.0	10793.178335736891;	%CH1 0 biomass
	2	0.0	0.0	3	0.0	0.51	0.0	0.0	14171.57161207722;	%CH1 0 onwind
	2	0.0	0.0	3	0.0	0.0	0.0	0.0	30187.20991294965;	%CH1 0 ror
	2	0.0	0.0	3	0.0	0.34	0.0	0.0	3869.0835415641363;	%CH1 0 solar
	2	258930.86896551726	103572.34758620692	3	0.0	1321.0758620689655	0.0	0.0	86095.34090144394;	%CH1 1 CCGT
	2	356686.5365853659	142674.61463414636	3	0.0	1819.8292682926829	0.0	0.0	39206.26513460878;	%CH1 1 OCGT
	2	2587.1106382978724	1034.844255319149	3	0.0	506.38297872340434	0.0	0.0	10793.178335736891;	%CH1 1 biomass
	2	0.0	0.0	3	0.0	0.51	0.0	0.0	14171.57161207722;	%CH1 1 onwind
	2	0.0	0.0	3	0.0	0.0	0.0	0.0	30187.20991294965;	%CH1 1 ror
	2	0.0	0.0	3	0.0	0.3400000000000001	0.0	0.0	3869.083541564137;	%CH1 1 solar
	2	258930.8689655173	103572.34758620693	3	0.0	1321.0758620689658	0.0	0.0	86095.34090144395;	%CH1 2 CCGT
	2	356686.5365853659	142674.61463414636	3	0.0	1819.829268292683	0.0	0.0	39206.26513460879;	%CH1 2 OCGT
	2	2587.1106382978733	1034.8442553191494	3	0.0	506.38297872340445	0.0	0.0	10793.178335736893;	%CH1 2 biomass
	2	483598.48484848486	193439.39393939392	3	0.0	386.8787878787879	0.0	0.0	2743181.3892859137;	%CH1 2 nuclear
	2	0.0	0.0	3	0.0	0.5099999999999999	0.0	0.0	14171.57161207722;	%CH1 2 onwind
	2	0.0	0.0	3	0.0	0.0	0.0	0.0	30187.20991294965;	%CH1 2 ror
	2	0.0	0.0	3	0.0	0.34	0.0	0.0	3869.0835415641363;	%CH1 2 solar
	2	258930.8689655173	103572.34758620693	3	0.0	1321.0758620689658	0.0	0.0	86095.34090144395;	%CH1 3 CCGT
	2	356686.5365853659	142674.61463414636	3	0.0	1819.829268292683	0.0	0.0	39206.26513460879;	%CH1 3 OCGT
	2	2587.1106382978724	1034.844255319149	3	0.0	506.38297872340434	0.0	0.0	10793.178335736891;	%CH1 3 biomass
	2	0.0	0.0	3	0.0	0.5099999999999999	0.0	0.0	14171.57161207722;	%CH1 3 onwind
	2	0.0	0.0	3	0.0	0.0	0.0	0.0	30187.20991294965;	%CH1 3 ror
	2	0.0	0.0	3	0.0	0.3400000000000001	0.0	0.0	3869.0835415641363;	%CH1 3 solar
	2	258930.8689655173	103572.34758620693	3	0.0	1321.0758620689658	0.0	0.0	86095.34090144395;	%CZ1 0 CCGT
	2	356686.5365853659	142674.61463414636	3	0.0	1819.8292682926829	0.0	0.0	39206.26513460879;	%CZ1 0 OCGT
	2	0.0	0.0	3	0.0	0.51	0.0	0.0	14171.57161207722;	%CZ1 0 onwind
	2	0.0	0.0	3	0.0	0.3400000000000001	0.0	0.0	3869.083541564137;	%CZ1 0 solar
	2	258930.8689655173	103572.34758620693	3	0.0	1321.0758620689658	0.0	0.0	86095.34090144395;	%CZ1 1 CCGT
	2	356686.5365853659	142674.61463414636	3	0.0	1819.829268292683	0.0	0.0	39206.26513460879;	%CZ1 1 OCGT
	2	114891.66666666664	45956.666666666664	3	0.0	417.78787878787875	0.0	0.0	373548.0338400873;	%CZ1 1 lignite
	2	483598.48484848486	193439.39393939392	3	0.0	386.8787878787879	0.0	0.0	2743181.3892859137;	%CZ1 1 nuclear
	2	0.0	0.0	3	0.0	0.51	0.0	0.0	14171.57161207722;	%CZ1 1 onwind
	2	0.0	0.0	3	0.0	0.0	0.0	0.0	30187.20991294965;	%CZ1 1 ror
	2	0.0	0.0	3	0.0	0.34	0.0	0.0	3869.0835415641363;	%CZ1 1 solar
	2	258930.8689655173	103572.34758620693	3	0.0	1321.0758620689658	0.0	0.0	86095.34090144394;	%CZ1 2 CCGT
	2	356686.5365853659	142674.61463414636	3	0.0	1819.8292682926829	0.0	0.0	39206.26513460878;	%CZ1 2 OCGT
	2	114891.66666666664	45956.666666666664	3	0.0	417.78787878787875	0.0	0.0	373548.0338400873;	%CZ1 2 lignite
	2	483598.48484848486	193439.39393939392	3	0.0	386.8787878787879	0.0	0.0	2743181.3892859137;	%CZ1 2 nuclear
	2	0.0	0.0	3	0.0	0.51	0.0	0.0	14171.57161207722;	%CZ1 2 onwind
	2	0.0	0.0	3	0.0	0.34	0.0	0.0	3869.0835415641363;	%CZ1 2 solar
	2	286134.52410510334	114453.80964204135	3	0.0	1459.8700209444046	0.0	0.0	86095.34090144395;	%DE1 0 CCGT
	2	356686.5365853659	142674.61463414636	3	0.0	1819.829268292683	0.0	0.0	39206.26513460879;	%DE1 0 OCGT
	2	2587.110638297873	1034.8442553191492	3	0.0	506.3829787234044	0.0	0.0	10793.178335736893;	%DE1 0 biomass
	2	107193.45685736097	42877.38274294439	3	0.0	389.79438857222175	0.0	0.0	373548.0338400873;	%DE1 0 lignite
	2	0.0	0.0	3	0.0	4677.684210526315	0.0	0.0	7349.357601754578;	%DE1 0 oil
	2	0.0	0.0	3	0.0	0.51	0.0	0.0	14171.57161207722;	%DE1 0 onwind
	2	0.0	0.0	3	0.0	0.0	0.0	0.0	30187.20991294965;	%DE1 0 ror
	2	0.0	0.0	3	0.0	0.34	0.0	0.0	3869.0835415641363;	%DE1 0 solar
	2	298405.1026930869	119362.04107723475	3	0.0	1522.475013740239	0.0	0.0	86095.34090144395;	%DE1 1 CCGT
	2	356686.5365853659	142674.61463414636	3	0.0	1819.829268292683	0.0	0.0	39206.26513460879;	%DE1 1 OCGT
	2	2587.1106382978724	1034.844255319149	3	0.0	506.3829787234042	0.0	0.0	10793.178335736891;	%DE1 1 biomass
	2	0.0	0.0	3	0.0	0.5099999999999999	0.0	0.0	14171.57161207722;	%DE1 1 onwind
	2	0.0	0.0	3	0.0	0.0	0.0	0.0	30187.209912949656;	%DE1 1 ror
	2	0.0	0.0	3	0.0	0.34	0.0	0.0	3869.0835415641363;	%DE1 1 solar
	2	299563.5905896341	119825.43623585363	3	0.0	1528.3856662736432	0.0	0.0	86095.34090144395;	%DE1 10 CCGT
	2	356686.5365853659	142674.61463414636	3	0.0	1819.829268292683	0.0	0.0	39206.26513460879;	%DE1 10 OCGT
	2	2587.1106382978724	1034.844255319149	3	0.0	506.38297872340434	0.0	0.0	10793.178335736891;	%DE1 10 biomass
	2	0.0	0.0	3	0.0	0.51	0.0	0.0	14680.872310811903;	%DE1 10 offwind
	2	0.0	0.0	3	0.0	0.51	0.0	0.0	14171.571612077221;	%DE1 10 onwind
	2	0.0	0.0	3	0.0	0.3400000000000001	0.0	0.0	3869.083541564137;	%DE1 10 solar
	2	264474.6660693432	105789.86642773727	3	0.0	1349.3605411701183	0.0	0.0	86095.34090144395;	%DE1 11 CCGT
	2	356686.5365853659	142674.61463414636	3	0.0	1819.829268292683	0.0	0.0	39206.26513460879;	%DE1 11 OCGT
	2	2587.1106382978724	1034.844255319149	3	0.0	506.38297872340434	0.0	0.0	10793.178335736891;	%DE1 11 biomass
	2	0.0	0.0	3	0.0	0.51	0.0	0.0	14171.57161207722;	%DE1 11 onwind
	2	0.0	0.0	3	0.0	0.0	0.0	0.0	30187.209912949646;	%DE1 11 ror
	2	0.0	0.0	3	0.0	0.34	0.0	0.0	3869.0835415641363;	%DE1 11 solar
	2	411212.18924926315	164484.87569970527	3	0.0	2098.02137372073	0.0	0.0	86095.34090144395;	%DE1 12 CCGT
	2	322831.0257979887	129132.41031919548	3	0.0	1647.0970703979012	0.0	0.0	39206.26513460879;	%DE1 12 OCGT
	2	2587.1106382978724	1034.844255319149	3	0.0	506.38297872340434	0.0	0.0	10793.178335736891;	%DE1 12 biomass
	2	214208.85416666666	85683.54166666666	3	0.0	958.6969696969696	0.0	0.0	373548.0338400873;	%DE1 12 coal
	2	0.0	0.0	3	0.0	0.5099999999999999	0.0	0.0	14171.57161207722;	%DE1 12 onwind
	2	0.0	0.0	3	0.0	0.0	0.0	0.0	30187.20991294965;	%DE1 12 ror
	2	0.0	0.0	3	0.0	0.34	0.0	0.0	3869.0835415641363;	%DE1 12 solar
	2	292950.636571355	117180.25462854201	3	0.0	1494.646104955893	0.0	0.0	86095.34090144395;	%DE1 13 CCGT
	2	356686.5365853659	142674.61463414636	3	0.0	1819.8292682926829	0.0	0.0	39206.26513460878;	%DE1 13 OCGT
	2	2587.1106382978724	1034.844255319149	3	0.0	506.3829787234042	0.0	0.0	10793.178335736891;	%DE1 13 biomass
	2	214208.85416666666	85683.54166666666	3	0.0	958.6969696969696	0.0	0.0	373548.0338400873;	%DE1 13 coal
	2	0.0	0.0	3	0.0	0.5099999999999999	0.0	0.0	12257.740043854032;	%DE1 13 offwind
	2	0.0	0.0	3	0.0	0.51	0.0	0.0	14171.57161207722;	%DE1 13 onwind
	2	0.0	0.0	3	0.0	0.0	0.0	0.0	30187.20991294965;	%DE1 13 ror
	2	0.0	0.0	3	0.0	0.34	0.0	0.0	3869.0835415641363;	%DE1 13 solar
	2	258930.8689655173	103572.34758620693	3	0.0	1321.0758620689658	0.0	0.0	86095.34090144395;	%DE1 14 CCGT
	2	356686.5365853659	142674.61463414636	3	0.0	1819.829268292683	0.0	0.0	39206.26513460879;	%DE1 14 OCGT
	2	2587.1106382978724	1034.844255319149	3	0.0	506.38297872340434	0.0	0.0	10793.178335736891;	%DE1 14 biomass
	2	0.0	0.0	3	0.0	0.51	0.0	0.0	14171.57161207722;	%DE1 14 onwind
	2	0.0	0.0	3	0.0	0.0	0.0	0.0	30187.20991294965;	%DE1 14 ror
	2	0.0	0.0	3	0.0	0.34	0.0	0.0	3869.083541564136;	%DE1 14 solar
	2	267619.87998465676	107047.95199386269	3	0.0	1365.4075509421261	0.0	0.0	86095.34090144395;	%DE1 15 CCGT
	2	356686.5365853659	142674.61463414636	3	0.0	1819.8292682926829	0.0	0.0	39206.26513460878;	%DE1 15 OCGT
	2	2587.1106382978724	1034.844255319149	3	0.0	506.38297872340434	0.0	0.0	10793.178335736891;	%DE1 15 biomass
	2	214208.85416666666	85683.54166666666	3	0.0	958.6969696969696	0.0	0.0	373548.0338400873;	%DE1 15 coal
	2	0.0	0.0	3	0.0	0.51	0.0	0.0	14171.57161207722;	%DE1 15 onwind
	2	0.0	0.0	3	0.0	0.0	0.0	0.0	30187.209912949646;	%DE1 15 ror
	2	0.0	0.0	3	0.0	0.34	0.0	0.0	3869.0835415641363;	%DE1 15 solar
	2	363626.76732484734	145450.70692993893	3	0.0	1855.2386088002413	0.0	0.0	86095.34090144395;	%DE1 16 CCGT
	2	356686.5365853659	142674.61463414636	3	0.0	1819.829268292683	0.0	0.0	39206.26513460879;	%DE1 16 OCGT
	2	2587.1106382978724	1034.844255319149	3	0.0	506.38297872340434	0.0	0.0	10793.178335736893;	%DE1 16 biomass
	2	0.0	0.0	3	0.0	0.51	0.0	0.0	14171.57161207722;	%DE1 16 onwind
	2	0.0	0.0	3	0.0	0.0	0.0	0.0	30187.209912949656;	%DE1 16 ror
	2	0.0	0.0	3	0.0	0.3400000000000001	0.0	0.0	3869.083541564137;	%DE1 16 solar
	2	294550.95642329595	117820.38256931838	3	0.0	1502.811002159673	0.0	0.0	86095.34090144395;	%DE1 17 CCGT
	2	356686.5365853659	142674.61463414636	3	0.0	1819.829268292683	0.0	0.0	39206.26513460879;	%DE1 17 OCGT
	2	2587.1106382978724	1034.844255319149	3	0.0	506.3829787234042	0.0	0.0	10793.178335736891;	%DE1 17 biomass
	2	103484.39457202508	41393.75782881003	3	0.0	376.3068893528185	0.0	0.0	373548.0338400873;	%DE1 17 lignite
	2	0.0	0.0	3	0.0	0.51	0.0	0.0	14171.571612077221;	%DE1 17 onwind
	2	0.0	0.0	3	0.0	0.0	0.0	0.0	30187.20991294965;	%DE1 17 ror
	2	0.0	0.0	3	0.0	0.34	0.0	0.0	3869.0835415641363;	%DE1 17 solar
	2	315027.8132597126	126011.12530388503	3	0.0	1607.2847615291455	0.0	0.0	86095.34090144395;	%DE1 18 CCGT
	2	356686.5365853659	142674.61463414636	3	0.0	1819.829268292683	0.0	0.0	39206.26513460879;	%DE1 18 OCGT
	2	2587.1106382978724	1034.844255319149	3	0.0	506.38297872340434	0.0	0.0	10793.178335736893;	%DE1 18 biomass
	2	0.0	0.0	3	0.0	0.51	0.0	0.0	14171.57161207722;	%DE1 18 onwind
	2	0.0	0.0	3	0.0	0.0	0.0	0.0	30187.20991294965;	%DE1 18 ror
	2	0.0	0.0	3	0.0	0.34	0.0	0.0	3869.0835415641363;	%DE1 18 solar
	2	386420.6332126385	154568.2532850554	3	0.0	1971.533842921625	0.0	0.0	86095.34090144395;	%DE1 19 CCGT
	2	356686.5365853659	142674.61463414636	3	0.0	1819.829268292683	0.0	0.0	39206.26513460879;	%DE1 19 OCGT
	2	2587.1106382978724	1034.844255319149	3	0.0	506.3829787234042	0.0	0.0	10793.178335736891;	%DE1 19 biomass
	2	0.0	0.0	3	0.0	0.5099999999999999	0.0	0.0	14171.57161207722;	%DE1 19 onwind
	2	0.0	0.0	3	0.0	0.0	0.0	0.0	30187.209912949656;	%DE1 19 ror
	2	0.0	0.0	3	0.0	0.3400000000000001	0.0	0.0	3869.0835415641363;	%DE1 19 solar
	2	258731.9524547804	103492.78098191216	3	0.0	1320.0609819121448	0.0	0.0	86095.34090144395;	%DE1 2 CCGT
	2	356686.5365853659	142674.61463414636	3	0.0	1819.829268292683	0.0	0.0	39206.26513460879;	%DE1 2 OCGT
	2	2587.1106382978724	1034.844255319149	3	0.0	506.38297872340434	0.0	0.0	10793.178335736891;	%DE1 2 biomass
	2	214208.85416666666	85683.54166666666	3	0.0	958.6969696969696	0.0	0.0	373548.0338400873;	%DE1 2 coal
	2	0.0	0.0	3	0.0	0.51	0.0	0.0	12395.239560519252;	%DE1 2 offwind
	2	0.0	0.0	3	0.0	0.51	0.0	0.0	14171.571612077221;	%DE1 2 onwind
	2	0.0	0.0	3	0.0	0.0	0.0	0.0	30187.20991294965;	%DE1 2 ror
	2	0.0	0.0	3	0.0	0.34	0.0	0.0	3869.0835415641363;	%DE1 2 solar
	2	278913.50176352926	111565.40070541171	3	0.0	1423.0280702220882	0.0	0.0	86095.34090144395;	%DE1 20 CCGT
	2	356686.5365853659	142674.61463414636	3	0.0	1819.8292682926829	0.0	0.0	39206.26513460879;	%DE1 20 OCGT
	2	2587.1106382978724	1034.844255319149	3	0.0	506.3829787234042	0.0	0.0	10793.178335736891;	%DE1 20 biomass
	2	214208.85416666666	85683.54166666666	3	0.0	958.6969696969696	0.0	0.0	373548.03384008724;	%DE1 20 coal
	2	0.0	0.0	3	0.0	0.5099999999999999	0.0	0.0	14171.571612077218;	%DE1 20 onwind
	2	0.0	0.0	3	0.0	0.0	0.0	0.0	30187.20991294965;	%DE1 20 ror
	2	0.0	0.0	3	0.0	0.33999999999999997	0.0	0.0	3869.083541564136;	%DE1 20 solar
	2	298432.0537037764	119372.82148151055	3	0.0	1522.612518896818	0.0	0.0	86095.34090144395;	%DE1 21 CCGT
	2	356686.5365853659	142674.61463414636	3	0.0	1819.8292682926829	0.0	0.0	39206.26513460878;	%DE1 21 OCGT
	2	2587.1106382978724	1034.844255319149	3	0.0	506.38297872340434	0.0	0.0	10793.178335736893;	%DE1 21 biomass
	2	101867.1585668469	40746.86342673876	3	0.0	370.4260311521706	0.0	0.0	373548.03384008724;	%DE1 21 lignite
	2	0.0	0.0	3	0.0	0.51	0.0	0.0	14171.57161207722;	%DE1 21 onwind
	2	0.0	0.0	3	0.0	0.0	0.0	0.0	30187.209912949656;	%DE1 21 ror
	2	0.0	0.0	3	0.0	0.34	0.0	0.0	3869.0835415641363;	%DE1 21 solar
	2	279341.45063336514	111736.58025334605	3	0.0	1425.2114828232914	0.0	0.0	86095.34090144395;	%DE1 22 CCGT
	2	356686.5365853659	142674.61463414636	3	0.0	1819.8292682926829	0.0	0.0	39206.26513460878;	%DE1 22 OCGT
	2	2587.1106382978724	1034.844255319149	3	0.0	506.38297872340434	0.0	0.0	10793.178335736891;	%DE1 22 biomass
	2	0.0	0.0	3	0.0	0.51	0.0	0.0	14171.57161207722;	%DE1 22 onwind
	2	0.0	0.0	3	0.0	0.0	0.0	0.0	30187.209912949646;	%DE1 22 ror
...
];
%% branch data
%	fbus	tbus	r	x	b	rateA	rateB	rateC	ratio	angle	status	angmin	angmax
mpc.branch = [
	1	66	0.0	0.0	0.0	1698.1026117405274	1698.1026117405274	1698.1026117405274	0	0	1	-60	60;	%AL1 0 - GR1 0
	1	75	0.0	0.0	0.0	2189.658630928575	2189.658630928575	2189.658630928575	0	0	1	-60	60;	%AL1 0 - ME1 0
	3	28	0.0	0.0	0.0	3396.205223481055	3396.205223481055	3396.205223481055	0	0	1	-60	60;	%AT1 1 - DE1 19
	32	40	0.0	0.0	0.0	11171.72770881926	11171.72770881926	11171.72770881926	0	0	1	-60	60;	%DE1 22 - DE1 3
	32	44	0.0	0.0	0.0	5094.3078352215825	5094.3078352215825	5094.3078352215825	0	0	1	-60	60;	%DE1 22 - DE1 33
	32	50	0.0	0.0	0.0	5094.3078352215825	5094.3078352215825	5094.3078352215825	0	0	1	-60	60;	%DE1 22 - DE1 8
	34	43	0.0	0.0	0.0	5362.429300233244	5362.429300233244	5362.429300233244	0	0	1	-60	60;	%DE1 24 - DE1 32
	34	48	0.0	0.0	0.0	4379.31726185715	4379.31726185715	4379.31726185715	0	0	1	-60	60;	%DE1 24 - DE1 6
	34	83	0.0	0.0	0.0	3396.205223481055	3396.205223481055	3396.205223481055	0	0	1	-60	60;	%DE1 24 - PL1 2
	35	50	0.0	0.0	0.0	10188.615670443165	10188.615670443165	10188.615670443165	0	0	1	-60	60;	%DE1 25 - DE1 8
	36	42	0.0	0.0	0.0	3396.205223481055	3396.205223481055	3396.205223481055	0	0	1	-60	60;	%DE1 26 - DE1 31
	36	50	0.0	0.0	0.0	7775.522485338204	7775.522485338204	7775.522485338204	0	0	1	-60	60;	%DE1 26 - DE1 8
	37	52	0.0	0.0	0.0	4379.31726185715	4379.31726185715	4379.31726185715	0	0	1	-60	60;	%DE1 27 - DK1 0
	3	33	0.0	0.0	0.0	10188.615670443165	10188.615670443165	10188.615670443165	0	0	1	-60	60;	%AT1 1 - DE1 23
	38	77	0.0	0.0	0.0	3396.205223481055	3396.205223481055	3396.205223481055	0	0	1	-60	60;	%DE1 28 - NL1 0
	39	49	0.0	0.0	0.0	6077.419873597677	6077.419873597677	6077.419873597677	0	0	1	-60	60;	%DE1 29 - DE1 7
	42	47	0.0	0.0	0.0	3396.205223481055	3396.205223481055	3396.205223481055	0	0	1	-60	60;	%DE1 31 - DE1 5
	42	50	0.0	0.0	0.0	5094.3078352215825	5094.3078352215825	5094.3078352215825	0	0	1	-60	60;	%DE1 31 - DE1 8
	43	51	0.0	0.0	0.0	4379.31726185715	4379.31726185715	4379.31726185715	0	0	1	-60	60;	%DE1 32 - DE1 9
	44	62	0.0	0.0	0.0	3887.761242669102	3887.761242669102	3887.761242669102	0	0	1	-60	60;	%DE1 33 - FR1 4
	45	49	0.0	0.0	0.0	4379.31726185715	4379.31726185715	4379.31726185715	0	0	1	-60	60;	%DE1 34 - DE1 7
	46	51	0.0	0.0	0.0	983.1120383760948	983.1120383760948	983.1120383760948	0	0	1	-60	60;	%DE1 4 - DE1 9
	48	51	0.0	0.0	0.0	10188.615670443165	10188.615670443165	10188.615670443165	0	0	1	-60	60;	%DE1 6 - DE1 9
	53	88	0.0	0.0	0.0	3396.205223481055	3396.205223481055	3396.205223481055	0	0	1	-60	60;	%DK2 0 - SE2 0
	4	5	0.0	0.0	0.0	6345.541338609339	6345.541338609339	6345.541338609339	0	0	1	-60	60;	%AT1 2 - AT1 3
	54	74	0.0	0.0	0.0	3016.3664813811993	3016.3664813811993	3016.3664813811993	0	0	1	-60	60;	%EE6 0 - LV6 0
	55	58	0.0	0.0	0.0	4379.31726185715	4379.31726185715	4379.31726185715	0	0	1	-60	60;	%ES1 0 - FR1 0
	55	85	0.0	0.0	0.0	15059.488951488362	15059.488951488362	15059.488951488362	0	0	1	-60	60;	%ES1 0 - PT1 0
	57	88	0.0	0.0	0.0	3396.205223481055	3396.205223481055	3396.205223481055	0	0	1	-60	60;	%FI2 0 - SE2 0
	58	59	0.0	0.0	0.0	14344.49837812393	14344.49837812393	14344.49837812393	0	0	1	-60	60;	%FR1 0 - FR1 1
	58	60	0.0	0.0	0.0	10724.858600466488	10724.858600466488	10724.858600466488	0	0	1	-60	60;	%FR1 0 - FR1 2
	58	61	0.0	0.0	0.0	13137.951785571448	13137.951785571448	13137.951785571448	0	0	1	-60	60;	%FR1 0 - FR1 3
	59	61	0.0	0.0	0.0	9250.190542902346	9250.190542902346	9250.190542902346	0	0	1	-60	60;	%FR1 1 - FR1 3
	59	62	0.0	0.0	0.0	23103.132901838228	23103.132901838228	23103.132901838228	0	0	1	-60	60;	%FR1 1 - FR1 4
	60	62	0.0	0.0	0.0	13852.942358935881	13852.942358935881	13852.942358935881	0	0	1	-60	60;	%FR1 2 - FR1 4
	4	39	0.0	0.0	0.0	2457.780095940237	2457.780095940237	2457.780095940237	0	0	1	-60	60;	%AT1 2 - DE1 29
	60	70	0.0	0.0	0.0	5585.86385440963	5585.86385440963	5585.86385440963	0	0	1	-60	60;	%FR1 2 - IT1 0
	63	64	0.0	0.0	0.0	45022.06266654161	45022.06266654161	45022.06266654161	0	0	1	-60	60;	%GB0 0 - GB0 1
	65	69	0.0	0.0	0.0	983.1120383760948	983.1120383760948	983.1120383760948	0	0	1	-60	60;	%GB5 0 - IE5 0
	66	76	0.0	0.0	0.0	3396.205223481055	3396.205223481055	3396.205223481055	0	0	1	-60	60;	%GR1 0 - MK1 0
	67	68	0.0	0.0	0.0	6792.41044696211	6792.41044696211	6792.41044696211	0	0	1	-60	60;	%HR1 0 - HU1 0
	67	87	0.0	0.0	0.0	1698.1026117405274	1698.1026117405274	1698.1026117405274	0	0	1	-60	60;	%HR1 0 - RS1 0
	67	89	0.0	0.0	0.0	6077.419873597677	6077.419873597677	6077.419873597677	0	0	1	-60	60;	%HR1 0 - SI1 0
	68	86	0.0	0.0	0.0	3396.205223481055	3396.205223481055	3396.205223481055	0	0	1	-60	60;	%HU1 0 - RO1 0
	68	87	0.0	0.0	0.0	1698.1026117405274	1698.1026117405274	1698.1026117405274	0	0	1	-60	60;	%HU1 0 - RS1 0
	68	90	0.0	0.0	0.0	3396.205223481055	3396.205223481055	3396.205223481055	0	0	1	-60	60;	%HU1 0 - SK1 0
	4	70	0.0	0.0	0.0	491.5560191880474	491.5560191880474	491.5560191880474	0	0	1	-60	60;	%AT1 2 - IT1 0
	70	89	0.0	0.0	0.0	2189.658630928575	2189.658630928575	2189.658630928575	0	0	1	-60	60;	%IT1 0 - SI1 0
	72	74	0.0	0.0	0.0	4021.8219751749325	4021.8219751749325	4021.8219751749325	0	0	1	-60	60;	%LT6 0 - LV6 0
	75	87	0.0	0.0	0.0	2681.214650116622	2681.214650116622	2681.214650116622	0	0	1	-60	60;	%ME1 0 - RS1 0
	76	87	0.0	0.0	0.0	3396.205223481055	3396.205223481055	3396.205223481055	0	0	1	-60	60;	%MK1 0 - RS1 0
	77	78	0.0	0.0	0.0	8490.513058702638	8490.513058702638	8490.513058702638	0	0	1	-60	60;	%NL1 0 - NL1 1
	77	79	0.0	0.0	0.0	5362.429300233244	5362.429300233244	5362.429300233244	0	0	1	-60	60;	%NL1 0 - NL1 2
	80	88	0.0	0.0	0.0	7283.966466150157	7283.966466150157	7283.966466150157	0	0	1	-60	60;	%NO2 0 - SE2 0
	81	82	0.0	0.0	0.0	7775.522485338204	7775.522485338204	7775.522485338204	0	0	1	-60	60;	%PL1 0 - PL1 1
	81	84	0.0	0.0	0.0	11931.405193018969	11931.405193018969	11931.405193018969	0	0	1	-60	60;	%PL1 0 - PL1 3
	81	90	0.0	0.0	0.0	3396.205223481055	3396.205223481055	3396.205223481055	0	0	1	-60	60;	%PL1 0 - SK1 0
	5	89	0.0	0.0	0.0	491.5560191880474	491.5560191880474	491.5560191880474	0	0	1	-60	60;	%AT1 3 - SI1 0
	82	83	0.0	0.0	0.0	16266.03554404084	16266.03554404084	16266.03554404084	0	0	1	-60	60;	%PL1 1 - PL1 2
	82	84	0.0	0.0	0.0	4379.31726185715	4379.31726185715	4379.31726185715	0	0	1	-60	60;	%PL1 1 - PL1 3
	83	84	0.0	0.0	0.0	8982.069077890685	8982.069077890685	8982.069077890685	0	0	1	-60	60;	%PL1 2 - PL1 3
	86	87	0.0	0.0	0.0	5094.3078352215825	5094.3078352215825	5094.3078352215825	0	0	1	-60	60;	%RO1 0 - RS1 0
	6	67	0.0	0.0	0.0	5362.429300233244	5362.429300233244	5362.429300233244	0	0	1	-60	60;	%BA1 0 - HR1 0
	6	75	0.0	0.0	0.0	2681.214650116622	2681.214650116622	2681.214650116622	0	0	1	-60	60;	%BA1 0 - ME1 0
	6	87	0.0	0.0	0.0	2189.658630928575	2189.658630928575	2189.658630928575	0	0	1	-60	60;	%BA1 0 - RS1 0
	7	8	0.0	0.0	0.0	6792.41044696211	6792.41044696211	6792.41044696211	0	0	1	-60	60;	%BE1 0 - BE1 1
	1	76	0.0	0.0	0.0	1698.1026117405274	1698.1026117405274	1698.1026117405274	0	0	1	-60	60;	%AL1 0 - MK1 0
	7	59	0.0	0.0	0.0	6792.41044696211	6792.41044696211	6792.41044696211	0	0	1	-60	60;	%BE1 0 - FR1 1
	7	78	0.0	0.0	0.0	3396.205223481055	3396.205223481055	3396.205223481055	0	0	1	-60	60;	%BE1 0 - NL1 1
	8	62	0.0	0.0	0.0	2681.214650116622	2681.214650116622	2681.214650116622	0	0	1	-60	60;	%BE1 1 - FR1 4
	8	73	0.0	0.0	0.0	983.1120383760948	983.1120383760948	983.1120383760948	0	0	1	-60	60;	%BE1 1 - LU1 0
	8	77	0.0	0.0	0.0	3396.205223481055	3396.205223481055	3396.205223481055	0	0	1	-60	60;	%BE1 1 - NL1 0
	9	66	0.0	0.0	0.0	1698.1026117405274	1698.1026117405274	1698.1026117405274	0	0	1	-60	60;	%BG1 0 - GR1 0
	9	76	0.0	0.0	0.0	1698.1026117405274	1698.1026117405274	1698.1026117405274	0	0	1	-60	60;	%BG1 0 - MK1 0
	9	86	0.0	0.0	0.0	6792.41044696211	6792.41044696211	6792.41044696211	0	0	1	-60	60;	%BG1 0 - RO1 0
	9	87	0.0	0.0	0.0	1698.1026117405274	1698.1026117405274	1698.1026117405274	0	0	1	-60	60;	%BG1 0 - RS1 0
	10	11	0.0	0.0	0.0	1966.2240767521896	1966.2240767521896	1966.2240767521896	0	0	1	-60	60;	%CH1 0 - CH1 1
	1	87	0.0	0.0	0.0	2189.658630928575	2189.658630928575	2189.658630928575	0	0	1	-60	60;	%AL1 0 - RS1 0
	10	12	0.0	0.0	0.0	5362.429300233244	5362.429300233244	5362.429300233244	0	0	1	-60	60;	%CH1 0 - CH1 2
	10	60	0.0	0.0	0.0	6345.541338609339	6345.541338609339	6345.541338609339	0	0	1	-60	60;	%CH1 0 - FR1 2
	10	70	0.0	0.0	0.0	983.1120383760948	983.1120383760948	983.1120383760948	0	0	1	-60	60;	%CH1 0 - IT1 0
	11	12	0.0	0.0	0.0	4379.31726185715	4379.31726185715	4379.31726185715	0	0	1	-60	60;	%CH1 1 - CH1 2
	11	13	0.0	0.0	0.0	8490.513058702638	8490.513058702638	8490.513058702638	0	0	1	-60	60;	%CH1 1 - CH1 3
	11	70	0.0	0.0	0.0	3887.761242669102	3887.761242669102	3887.761242669102	0	0	1	-60	60;	%CH1 1 - IT1 0
	12	13	0.0	0.0	0.0	13852.942358935883	13852.942358935883	13852.942358935883	0	0	1	-60	60;	%CH1 2 - CH1 3
	12	27	0.0	0.0	0.0	27169.64178784844	27169.64178784844	27169.64178784844	0	0	1	-60	60;	%CH1 2 - DE1 18
	12	62	0.0	0.0	0.0	3396.205223481055	3396.205223481055	3396.205223481055	0	0	1	-60	60;	%CH1 2 - FR1 4
	13	70	0.0	0.0	0.0	3396.205223481055	3396.205223481055	3396.205223481055	0	0	1	-60	60;	%CH1 3 - IT1 0
	2	5	0.0	0.0	0.0	8758.6345237143	8758.6345237143	8758.6345237143	0	0	1	-60	60;	%AT1 0 - AT1 3
	14	16	0.0	0.0	0.0	9473.625097078731	9473.625097078731	9473.625097078731	0	0	1	-60	60;	%CZ1 0 - CZ1 2
	14	84	0.0	0.0	0.0	4379.31726185715	4379.31726185715	4379.31726185715	0	0	1	-60	60;	%CZ1 0 - PL1 3
	14	90	0.0	0.0	0.0	2189.658630928575	2189.658630928575	2189.658630928575	0	0	1	-60	60;	%CZ1 0 - SK1 0
	15	16	0.0	0.0	0.0	12154.839747195354	12154.839747195354	12154.839747195354	0	0	1	-60	60;	%CZ1 1 - CZ1 2
	15	25	0.0	0.0	0.0	3396.205223481055	3396.205223481055	3396.205223481055	0	0	1	-60	60;	%CZ1 1 - DE1 16
	15	46	0.0	0.0	0.0	3396.205223481055	3396.205223481055	3396.205223481055	0	0	1	-60	60;	%CZ1 1 - DE1 4
	16	90	0.0	0.0	0.0	3887.761242669102	3887.761242669102	3887.761242669102	0	0	1	-60	60;	%CZ1 2 - SK1 0
	17	23	0.0	0.0	0.0	3396.205223481055	3396.205223481055	3396.205223481055	0	0	1	-60	60;	%DE1 0 - DE1 14
	17	24	0.0	0.0	0.0	6077.419873597677	6077.419873597677	6077.419873597677	0	0	1	-60	60;	%DE1 0 - DE1 15
	17	35	0.0	0.0	0.0	12869.830320559786	12869.830320559786	12869.830320559786	0	0	1	-60	60;	%DE1 0 - DE1 25
	2	16	0.0	0.0	0.0	4379.31726185715	4379.31726185715	4379.31726185715	0	0	1	-60	60;	%AT1 0 - CZ1 2
	17	38	0.0	0.0	0.0	11886.718282183692	11886.718282183692	11886.718282183692	0	0	1	-60	60;	%DE1 0 - DE1 28
	17	77	0.0	0.0	0.0	3396.205223481055	3396.205223481055	3396.205223481055	0	0	1	-60	60;	%DE1 0 - NL1 0
	18	25	0.0	0.0	0.0	983.1120383760948	983.1120383760948	983.1120383760948	0	0	1	-60	60;	%DE1 1 - DE1 16
	18	36	0.0	0.0	0.0	9473.625097078733	9473.625097078733	9473.625097078733	0	0	1	-60	60;	%DE1 1 - DE1 26
	18	41	0.0	0.0	0.0	5094.3078352215825	5094.3078352215825	5094.3078352215825	0	0	1	-60	60;	%DE1 1 - DE1 30
	18	45	0.0	0.0	0.0	6077.419873597677	6077.419873597677	6077.419873597677	0	0	1	-60	60;	%DE1 1 - DE1 34
	19	22	0.0	0.0	0.0	6792.41044696211	6792.41044696211	6792.41044696211	0	0	1	-60	60;	%DE1 10 - DE1 13
	19	24	0.0	0.0	0.0	5094.3078352215825	5094.3078352215825	5094.3078352215825	0	0	1	-60	60;	%DE1 10 - DE1 15
	19	38	0.0	0.0	0.0	8490.513058702638	8490.513058702638	8490.513058702638	0	0	1	-60	60;	%DE1 10 - DE1 28
	19	47	0.0	0.0	0.0	6792.41044696211	6792.41044696211	6792.41044696211	0	0	1	-60	60;	%DE1 10 - DE1 5
	2	68	0.0	0.0	0.0	4379.31726185715	4379.31726185715	4379.31726185715	0	0	1	-60	60;	%AT1 0 - HU1 0
	19	77	0.0	0.0	0.0	3396.205223481055	3396.205223481055	3396.205223481055	0	0	1	-60	60;	%DE1 10 - NL1 0
	19	79	0.0	0.0	0.0	3396.205223481055	3396.205223481055	3396.205223481055	0	0	1	-60	60;	%DE1 10 - NL1 2
	20	26	0.0	0.0	0.0	3396.205223481055	3396.205223481055	3396.205223481055	0	0	1	-60	60;	%DE1 11 - DE1 17
	20	42	0.0	0.0	0.0	3396.205223481055	3396.205223481055	3396.205223481055	0	0	1	-60	60;	%DE1 11 - DE1 31
	21	27	0.0	0.0	0.0	3396.205223481055	3396.205223481055	3396.205223481055	0	0	1	-60	60;	%DE1 12 - DE1 18
	21	32	0.0	0.0	0.0	6792.41044696211	6792.41044696211	6792.41044696211	0	0	1	-60	60;	%DE1 12 - DE1 22
	21	33	0.0	0.0	0.0	10188.615670443165	10188.615670443165	10188.615670443165	0	0	1	-60	60;	%DE1 12 - DE1 23
	21	36	0.0	0.0	0.0	3396.205223481055	3396.205223481055	3396.205223481055	0	0	1	-60	60;	%DE1 12 - DE1 26
	21	40	0.0	0.0	0.0	5094.3078352215825	5094.3078352215825	5094.3078352215825	0	0	1	-60	60;	%DE1 12 - DE1 3
	22	29	0.0	0.0	0.0	10188.615670443165	10188.615670443165	10188.615670443165	0	0	1	-60	60;	%DE1 13 - DE1 2
	2	89	0.0	0.0	0.0	3396.205223481055	3396.205223481055	3396.205223481055	0	0	1	-60	60;	%AT1 0 - SI1 0
	22	37	0.0	0.0	0.0	983.1120383760948	983.1120383760948	983.1120383760948	0	0	1	-60	60;	%DE1 13 - DE1 27
	22	47	0.0	0.0	0.0	11171.727708819259	11171.727708819259	11171.727708819259	0	0	1	-60	60;	%DE1 13 - DE1 5
	23	35	0.0	0.0	0.0	1474.6680575641421	1474.6680575641421	1474.6680575641421	0	0	1	-60	60;	%DE1 14 - DE1 25
	23	44	0.0	0.0	0.0	6077.419873597677	6077.419873597677	6077.419873597677	0	0	1	-60	60;	%DE1 14 - DE1 33
	23	73	0.0	0.0	0.0	3440.892134316332	3440.892134316332	3440.892134316332	0	0	1	-60	60;	%DE1 14 - LU1 0
	24	35	0.0	0.0	0.0	8758.6345237143	8758.6345237143	8758.6345237143	0	0	1	-60	60;	%DE1 15 - DE1 25
	24	38	0.0	0.0	0.0	11171.72770881926	11171.72770881926	11171.72770881926	0	0	1	-60	60;	%DE1 15 - DE1 28
	24	42	0.0	0.0	0.0	3396.205223481055	3396.205223481055	3396.205223481055	0	0	1	-60	60;	%DE1 15 - DE1 31
	24	47	0.0	0.0	0.0	3396.205223481055	3396.205223481055	3396.205223481055	0	0	1	-60	60;	%DE1 15 - DE1 5
	25	26	0.0	0.0	0.0	3396.205223481055	3396.205223481055	3396.205223481055	0	0	1	-60	60;	%DE1 16 - DE1 17
	3	4	0.0	0.0	0.0	983.1120383760948	983.1120383760948	983.1120383760948	0	0	1	-60	60;	%AT1 1 - AT1 2
	25	39	0.0	0.0	0.0	3396.205223481055	3396.205223481055	3396.205223481055	0	0	1	-60	60;	%DE1 16 - DE1 29
	26	41	0.0	0.0	0.0	18679.128729145803	18679.128729145803	18679.128729145803	0	0	1	-60	60;	%DE1 17 - DE1 30
	26	46	0.0	0.0	0.0	7775.522485338204	7775.522485338204	7775.522485338204	0	0	1	-60	60;	%DE1 17 - DE1 4
	26	51	0.0	0.0	0.0	4379.31726185715	4379.31726185715	4379.31726185715	0	0	1	-60	60;	%DE1 17 - DE1 9
	27	33	0.0	0.0	0.0	3396.205223481055	3396.205223481055	3396.205223481055	0	0	1	-60	60;	%DE1 18 - DE1 23
	27	40	0.0	0.0	0.0	6077.419873597677	6077.419873597677	6077.419873597677	0	0	1	-60	60;	%DE1 18 - DE1 3
	27	62	0.0	0.0	0.0	5585.86385440963	5585.86385440963	5585.86385440963	0	0	1	-60	60;	%DE1 18 - FR1 4
	28	33	0.0	0.0	0.0	7775.522485338204	7775.522485338204	7775.522485338204	0	0	1	-60	60;	%DE1 19 - DE1 23
	28	49	0.0	0.0	0.0	5094.3078352215825	5094.3078352215825	5094.3078352215825	0	0	1	-60	60;	%DE1 19 - DE1 7
	29	30	0.0	0.0	0.0	3396.205223481055	3396.205223481055	3396.205223481055	0	0	1	-60	60;	%DE1 2 - DE1 20
	3	13	0.0	0.0	0.0	6792.41044696211	6792.41044696211	6792.41044696211	0	0	1	-60	60;	%AT1 1 - CH1 3
	29	37	0.0	0.0	0.0	24756.548602743478	24756.548602743478	24756.548602743478	0	0	1	-60	60;	%DE1 2 - DE1 27
	29	43	0.0	0.0	0.0	3396.205223481055	3396.205223481055	3396.205223481055	0	0	1	-60	60;	%DE1 2 - DE1 32
	30	42	0.0	0.0	0.0	6792.41044696211	6792.41044696211	6792.41044696211	0	0	1	-60	60;	%DE1 20 - DE1 31
	30	47	0.0	0.0	0.0	983.1120383760948	983.1120383760948	983.1120383760948	0	0	1	-60	60;	%DE1 20 - DE1 5
	30	51	0.0	0.0	0.0	3396.205223481055	3396.205223481055	3396.205223481055	0	0	1	-60	60;	%DE1 20 - DE1 9
	31	46	0.0	0.0	0.0	10188.615670443165	10188.615670443165	10188.615670443165	0	0	1	-60	60;	%DE1 21 - DE1 4
	31	48	0.0	0.0	0.0	13584.82089392422	13584.82089392422	13584.82089392422	0	0	1	-60	60;	%DE1 21 - DE1 6
	31	83	0.0	0.0	0.0	3396.205223481055	3396.205223481055	3396.205223481055	0	0	1	-60	60;	%DE1 21 - PL1 2
	32	35	0.0	0.0	0.0	3396.205223481055	3396.205223481055	3396.205223481055	0	0	1	-60	60;	%DE1 22 - DE1 25
	32	36	0.0	0.0	0.0	3396.205223481055	3396.205223481055	3396.205223481055	0	0	1	-60	60;	%DE1 22 - DE1 26
];
%% dcline data
%	fbus	tbus	status	Pf	Pt	Qf	Qt	Vf	Vt	Pmin	Pmax	QminF	QmaxF	QminT	QmaxT	loss0	loss1
mpc.dcline = [
	70	66	1	0.0	0.0	0.0	0.0	1.0	1.0	-500.0	500.0	-500.0	500.0	-500.0	500.0	0.0	0.01;	%IT1 0 - GR1 0
	56	55	1	0.0	0.0	0.0	0.0	1.0	1.0	-400.0	400.0	-400.0	400.0	-400.0	400.0	0.0	0.01;	%ES4 0 - ES1 0
	70	71	1	0.0	0.0	0.0	0.0	1.0	1.0	-1000.0	1000.0	-1000.0	1000.0	-1000.0	1000.0	0.0	0.01;	%IT1 0 - IT3 0
	70	75	1	0.0	0.0	0.0	0.0	1.0	1.0	-1000.0	1000.0	-1000.0	1000.0	-1000.0	1000.0	0.0	0.01;	%IT1 0 - ME1 0
	58	55	1	0.0	0.0	0.0	0.0	1.0	1.0	-2000.0	2000.0	-2000.0	2000.0	-2000.0	2000.0	0.0	0.01;	%FR1 0 - ES1 0
	17	8	1	0.0	0.0	0.0	0.0	1.0	1.0	-1000.0	1000.0	-1000.0	1000.0	-1000.0	1000.0	0.0	0.01;	%DE1 0 - BE1 1
	63	78	1	0.0	0.0	0.0	0.0	1.0	1.0	-1000.0	1000.0	-1000.0	1000.0	-1000.0	1000.0	0.0	0.01;	%GB0 0 - NL1 1
	63	59	1	0.0	0.0	0.0	0.0	1.0	1.0	-2000.0	2000.0	-2000.0	2000.0	-2000.0	2000.0	0.0	0.01;	%GB0 0 - FR1 1
	72	88	1	0.0	0.0	0.0	0.0	1.0	1.0	-700.0	700.0	-700.0	700.0	-700.0	700.0	0.0	0.01;	%LT6 0 - SE2 0
	53	52	1	0.0	0.0	0.0	0.0	1.0	1.0	-600.0	600.0	-600.0	600.0	-600.0	600.0	0.0	0.01;	%DK2 0 - DK1 0
	53	43	1	0.0	0.0	0.0	0.0	1.0	1.0	-600.0	600.0	-600.0	600.0	-600.0	600.0	0.0	0.01;	%DK2 0 - DE1 32
	88	29	1	0.0	0.0	0.0	0.0	1.0	1.0	-600.0	600.0	-600.0	600.0	-600.0	600.0	0.0	0.01;	%SE2 0 - DE1 2
	82	88	1	0.0	0.0	0.0	0.0	1.0	1.0	-600.0	600.0	-600.0	600.0	-600.0	600.0	0.0	0.01;	%PL1 1 - SE2 0
	79	52	1	0.0	0.0	0.0	0.0	1.0	1.0	-700.0	700.0	-700.0	700.0	-700.0	700.0	0.0	0.01;	%NL1 2 - DK1 0
	79	80	1	0.0	0.0	0.0	0.0	1.0	1.0	-700.0	700.0	-700.0	700.0	-700.0	700.0	0.0	0.01;	%NL1 2 - NO2 0
	37	80	1	0.0	0.0	0.0	0.0	1.0	1.0	-1400.0	1400.0	-1400.0	1400.0	-1400.0	1400.0	0.0	0.01;	%DE1 27 - NO2 0
	64	65	1	0.0	0.0	0.0	0.0	1.0	1.0	-2501.0	2501.0	-2501.0	2501.0	-2501.0	2501.0	0.0	0.01;	%GB0 1 - GB5 0
	64	65	1	0.0	0.0	0.0	0.0	1.0	1.0	-250.0	250.0	-250.0	250.0	-250.0	250.0	0.0	0.01;	%GB0 1 - GB5 0
	64	69	1	0.0	0.0	0.0	0.0	1.0	1.0	-500.0	500.0	-500.0	500.0	-500.0	500.0	0.0	0.01;	%GB0 1 - IE5 0
	88	52	1	0.0	0.0	0.0	0.0	1.0	1.0	-250.0	250.0	-250.0	250.0	-250.0	250.0	0.0	0.01;	%SE2 0 - DK1 0
	88	52	1	0.0	0.0	0.0	0.0	1.0	1.0	-300.0	300.0	-300.0	300.0	-300.0	300.0	0.0	0.01;	%SE2 0 - DK1 0
	57	54	1	0.0	0.0	0.0	0.0	1.0	1.0	-600.0	600.0	-600.0	600.0	-600.0	600.0	0.0	0.01;	%FI2 0 - EE6 0
	57	54	1	0.0	0.0	0.0	0.0	1.0	1.0	-650.0	650.0	-650.0	650.0	-650.0	650.0	0.0	0.01;	%FI2 0 - EE6 0
	88	57	1	0.0	0.0	0.0	0.0	1.0	1.0	-800.0	800.0	-800.0	800.0	-800.0	800.0	0.0	0.01;	%SE2 0 - FI2 0
	88	57	1	0.0	0.0	0.0	0.0	1.0	1.0	-500.0	500.0	-500.0	500.0	-500.0	500.0	0.0	0.01;	%SE2 0 - FI2 0
	55	58	1	0.0	0.0	0.0	0.0	1.0	1.0	-2200.0	2200.0	-2200.0	2200.0	-2200.0	2200.0	0.0	0.01;	%ES1 0 - FR1 0
...